ligprep_5.maegz:1
                    3D
 Schrodinger Suite 2020-4.
 65 69  0  0  1  0            999 V2000
    6.0084   -0.2514   24.4225 O   0  0  0  0  0  0
    6.7865   -1.0998   23.9845 C   0  0  0  0  0  0
    8.1232   -0.9098   23.9790 N   0  0  0  0  0  0
    8.8169    0.2747   24.5230 C   0  0  0  0  0  0
    9.4138    1.3436   23.5249 C   0  0  1  0  0  0
    8.5925    1.4589   22.1884 C   0  0  0  0  0  0
    9.1745    1.5470   21.1081 O   0  0  0  0  0  0
    7.2466    1.5274   22.2795 N   0  0  0  0  0  0
    6.3180    1.6331   21.2241 C   0  0  0  0  0  0
    6.5237    1.0146   19.9797 C   0  0  0  0  0  0
    5.6538    1.0777   18.9487 N   0  0  0  0  0  0
    4.5146    1.7728   19.1467 C   0  0  0  0  0  0
    4.1605    2.4177   20.3478 C   0  0  0  0  0  0
    2.9383    3.1148   20.5077 C   0  0  0  0  0  0
    2.6408    3.7303   21.7201 C   0  0  0  0  0  0
    3.5362    3.6686   22.7824 C   0  0  0  0  0  0
    4.7473    2.9923   22.6524 C   0  0  0  0  0  0
    5.0934    2.3463   21.4300 C   0  0  0  0  0  0
    9.3750    2.7508   24.2023 C   0  0  0  0  0  0
   10.2809    3.7740   23.4930 C   0  0  0  0  0  0
   11.6326    3.3361   23.5500 O   0  0  0  0  0  0
   11.8618    2.0432   23.1221 C   0  0  0  0  0  0
   13.1677    1.7965   22.7078 C   0  0  0  0  0  0
   13.5382    0.5189   22.3109 C   0  0  0  0  0  0
   12.6039   -0.5115   22.3129 C   0  0  0  0  0  0
   13.0736   -2.0913   21.8009 Cl  0  0  0  0  0  0
   11.2948   -0.2627   22.7263 C   0  0  0  0  0  0
   10.8866    1.0178   23.1463 C   0  0  0  0  0  0
    6.2187   -2.4370   23.4343 C   0  0  1  0  0  0
    6.1022   -2.3006   21.8903 C   0  0  0  0  0  0
    5.5704   -3.5116   21.3530 O   0  0  0  0  0  0
    6.4465   -4.6088   21.5927 C   0  0  0  0  0  0
    6.6498   -4.8227   23.1069 C   0  0  0  0  0  0
    7.0769   -3.5948   23.8000 N   0  0  2  0  0  0
    7.2167   -3.8380   25.2517 C   0  0  0  0  0  0
    8.6020   -4.4003   25.6321 C   0  0  0  0  0  0
    8.7599   -4.3968   26.9554 F   0  0  0  0  0  0
    8.7721   -5.6530   25.2187 F   0  0  0  0  0  0
    9.5787   -3.6607   25.1093 F   0  0  0  0  0  0
    8.6910   -1.6943   23.6865 H   0  0  0  0  0  0
    9.6149   -0.0963   25.1684 H   0  0  0  0  0  0
    8.1511    0.7771   25.2307 H   0  0  0  0  0  0
    6.8426    1.4871   23.2036 H   0  0  0  0  0  0
    7.4102    0.4317   19.7818 H   0  0  0  0  0  0
    3.8401    1.8194   18.3081 H   0  0  0  0  0  0
    2.2474    3.1733   19.6784 H   0  0  0  0  0  0
    1.7130    4.2694   21.8306 H   0  0  0  0  0  0
    3.2936    4.1591   23.7135 H   0  0  0  0  0  0
    5.4255    2.9591   23.4909 H   0  0  0  0  0  0
    8.3581    3.1416   24.2715 H   0  0  0  0  0  0
    9.7196    2.6696   25.2348 H   0  0  0  0  0  0
    9.9736    3.9032   22.4550 H   0  0  0  0  0  0
   10.2082    4.7505   23.9743 H   0  0  0  0  0  0
   13.8948    2.5949   22.7034 H   0  0  0  0  0  0
   14.5469    0.3481   21.9797 H   0  0  0  0  0  0
   10.5823   -1.0723   22.6921 H   0  0  0  0  0  0
    5.2164   -2.5505   23.8573 H   0  0  0  0  0  0
    5.4391   -1.4769   21.6185 H   0  0  0  0  0  0
    7.0681   -2.0849   21.4240 H   0  0  0  0  0  0
    6.0201   -5.5057   21.1434 H   0  0  0  0  0  0
    7.4093   -4.4514   21.1081 H   0  0  0  0  0  0
    5.7201   -5.1872   23.5474 H   0  0  0  0  0  0
    7.3796   -5.6154   23.2631 H   0  0  0  0  0  0
    7.0895   -2.9151   25.8173 H   0  0  0  0  0  0
    6.4298   -4.4997   25.6181 H   0  0  0  0  0  0
  1  2  2  0  0  0
  2  3  1  0  0  0
  2 29  1  0  0  0
  3  4  1  0  0  0
  3 40  1  0  0  0
  4  5  1  0  0  0
  4 41  1  0  0  0
  4 42  1  0  0  0
  5 28  1  0  0  0
  5  6  1  0  0  0
  5 19  1  0  0  0
  6  7  2  0  0  0
  6  8  1  0  0  0
  8  9  1  0  0  0
  8 43  1  0  0  0
  9 18  2  0  0  0
  9 10  1  0  0  0
 10 11  2  0  0  0
 10 44  1  0  0  0
 11 12  1  0  0  0
 12 13  2  0  0  0
 12 45  1  0  0  0
 13 18  1  0  0  0
 13 14  1  0  0  0
 14 15  2  0  0  0
 14 46  1  0  0  0
 15 16  1  0  0  0
 15 47  1  0  0  0
 16 17  2  0  0  0
 16 48  1  0  0  0
 17 18  1  0  0  0
 17 49  1  0  0  0
 19 20  1  0  0  0
 19 50  1  0  0  0
 19 51  1  0  0  0
 20 21  1  0  0  0
 20 52  1  0  0  0
 20 53  1  0  0  0
 21 22  1  0  0  0
 22 28  2  0  0  0
 22 23  1  0  0  0
 23 24  2  0  0  0
 23 54  1  0  0  0
 24 25  1  0  0  0
 24 55  1  0  0  0
 25 26  1  0  0  0
 25 27  2  0  0  0
 27 28  1  0  0  0
 27 56  1  0  0  0
 29 34  1  0  0  0
 29 30  1  0  0  0
 29 57  1  0  0  0
 30 31  1  0  0  0
 30 58  1  0  0  0
 30 59  1  0  0  0
 31 32  1  0  0  0
 32 33  1  0  0  0
 32 60  1  0  0  0
 32 61  1  0  0  0
 33 34  1  0  0  0
 33 62  1  0  0  0
 33 63  1  0  0  0
 34 35  1  0  0  0
 35 36  1  0  0  0
 35 64  1  0  0  0
 35 65  1  0  0  0
 36 37  1  0  0  0
 36 38  1  0  0  0
 36 39  1  0  0  0
M  END
> <r_i_docking_score>
-7.84115963950109

$$$$
ligprep_5.maegz:2
                    3D
 Schrodinger Suite 2020-4.
 43 46  0  0  1  0            999 V2000
    6.6649    0.5270   24.4622 C   0  0  0  0  0  0
    6.9932   -0.8414   24.2112 O   0  0  0  0  0  0
    7.2455   -1.2736   22.8555 C   0  0  2  0  0  0
    8.6387   -0.7444   22.3547 C   0  0  0  0  0  0
    8.7931   -0.4030   21.1770 O   0  0  0  0  0  0
    9.6379   -0.6694   23.2625 N   0  0  0  0  0  0
   10.9466   -0.2502   22.9638 C   0  0  0  0  0  0
   11.8983   -1.2107   22.6105 C   0  0  0  0  0  0
   13.1817   -0.9169   22.2915 N   0  0  0  0  0  0
   13.5524    0.3838   22.3126 C   0  0  0  0  0  0
   12.6998    1.4516   22.6629 C   0  0  0  0  0  0
   13.1230    2.8037   22.6410 C   0  0  0  0  0  0
   12.2351    3.8161   22.9912 C   0  0  0  0  0  0
   10.9265    3.5133   23.3498 C   0  0  0  0  0  0
   10.4779    2.1966   23.3552 C   0  0  0  0  0  0
   11.3499    1.1277   23.0082 C   0  0  0  0  0  0
    6.0979   -0.8129   21.9094 C   0  0  0  0  0  0
    5.9994   -1.6336   20.6122 C   0  0  0  0  0  0
    5.7682   -3.0067   20.9165 O   0  0  0  0  0  0
    6.5779   -3.5639   21.8928 C   0  0  0  0  0  0
    6.6137   -4.9617   21.8936 C   0  0  0  0  0  0
    5.9699   -5.6640   20.9350 F   0  0  0  0  0  0
    7.3095   -5.6419   22.8868 C   0  0  0  0  0  0
    7.9694   -4.9266   23.8814 C   0  0  0  0  0  0
    8.6222   -5.5792   24.8676 F   0  0  0  0  0  0
    7.9738   -3.5336   23.8514 C   0  0  0  0  0  0
    7.2867   -2.8134   22.8601 C   0  0  0  0  0  0
    6.5643    0.6772   25.5416 H   0  0  0  0  0  0
    7.4423    1.2042   24.1089 H   0  0  0  0  0  0
    5.7177    0.8141   24.0016 H   0  0  0  0  0  0
    9.4411   -0.9712   24.2065 H   0  0  0  0  0  0
   11.6308   -2.2575   22.5545 H   0  0  0  0  0  0
   14.5654    0.6073   22.0209 H   0  0  0  0  0  0
   14.1366    3.0430   22.3527 H   0  0  0  0  0  0
   12.5615    4.8453   22.9735 H   0  0  0  0  0  0
   10.2450    4.3132   23.6016 H   0  0  0  0  0  0
    9.4499    1.9890   23.6003 H   0  0  0  0  0  0
    6.1538    0.2515   21.6760 H   0  0  0  0  0  0
    5.1698   -0.9626   22.4499 H   0  0  0  0  0  0
    6.9055   -1.5444   20.0139 H   0  0  0  0  0  0
    5.1793   -1.2601   19.9960 H   0  0  0  0  0  0
    7.3282   -6.7217   22.8891 H   0  0  0  0  0  0
    8.4991   -3.0056   24.6317 H   0  0  0  0  0  0
  1  2  1  0  0  0
  1 28  1  0  0  0
  1 29  1  0  0  0
  1 30  1  0  0  0
  2  3  1  0  0  0
  3 27  1  0  0  0
  3  4  1  0  0  0
  3 17  1  0  0  0
  4  5  2  0  0  0
  4  6  1  0  0  0
  6  7  1  0  0  0
  6 31  1  0  0  0
  7 16  2  0  0  0
  7  8  1  0  0  0
  8  9  2  0  0  0
  8 32  1  0  0  0
  9 10  1  0  0  0
 10 11  2  0  0  0
 10 33  1  0  0  0
 11 16  1  0  0  0
 11 12  1  0  0  0
 12 13  2  0  0  0
 12 34  1  0  0  0
 13 14  1  0  0  0
 13 35  1  0  0  0
 14 15  2  0  0  0
 14 36  1  0  0  0
 15 16  1  0  0  0
 15 37  1  0  0  0
 17 18  1  0  0  0
 17 38  1  0  0  0
 17 39  1  0  0  0
 18 19  1  0  0  0
 18 40  1  0  0  0
 18 41  1  0  0  0
 19 20  1  0  0  0
 20 27  2  0  0  0
 20 21  1  0  0  0
 21 22  1  0  0  0
 21 23  2  0  0  0
 23 24  1  0  0  0
 23 42  1  0  0  0
 24 25  1  0  0  0
 24 26  2  0  0  0
 26 27  1  0  0  0
 26 43  1  0  0  0
M  END
> <r_i_docking_score>
-7.04322484885253

$$$$
ligprep_5.maegz:3
                    3D
 Schrodinger Suite 2020-4.
 46 49  0  0  1  0            999 V2000
    7.5871   -5.5981   23.9184 C   0  0  0  0  0  0
    7.5591   -4.1872   24.0851 O   0  0  0  0  0  0
    8.7690   -3.5480   23.6803 C   0  0  0  0  0  0
    8.6440   -1.9907   23.5929 C   0  0  1  0  0  0
    7.6850   -1.6268   22.3966 C   0  0  0  0  0  0
    6.9437   -2.4813   21.9031 O   0  0  0  0  0  0
    7.6849   -0.3472   21.9489 N   0  0  0  0  0  0
    6.8696    0.1500   20.9120 C   0  0  0  0  0  0
    6.9348   -0.4178   19.6337 C   0  0  0  0  0  0
    6.1994    0.0022   18.5784 N   0  0  0  0  0  0
    5.3483    1.0321   18.7826 C   0  0  0  0  0  0
    5.1725    1.6883   20.0189 C   0  0  0  0  0  0
    4.2455    2.7456   20.1963 C   0  0  0  0  0  0
    4.1228    3.3669   21.4362 C   0  0  0  0  0  0
    4.9117    2.9666   22.5081 C   0  0  0  0  0  0
    5.8271    1.9281   22.3608 C   0  0  0  0  0  0
    5.9739    1.2497   21.1205 C   0  0  0  0  0  0
    8.0518   -1.4418   24.9267 C   0  0  0  0  0  0
    8.3368    0.0519   25.1578 C   0  0  0  0  0  0
    9.7295    0.3417   25.0998 O   0  0  0  0  0  0
   10.4214   -0.1853   24.0293 C   0  0  0  0  0  0
   11.6178    0.4676   23.7359 C   0  0  0  0  0  0
   12.4916   -0.0585   22.7885 C   0  0  0  0  0  0
   13.9696    0.7703   22.4503 Cl  0  0  0  0  0  0
   12.1764   -1.2631   22.1571 C   0  0  0  0  0  0
   13.3077   -2.0494   21.1074 Cl  0  0  0  0  0  0
   10.9412   -1.8664   22.3938 C   0  0  0  0  0  0
   10.0294   -1.3478   23.3300 C   0  0  0  0  0  0
    6.6292   -6.0301   24.2163 H   0  0  0  0  0  0
    7.7542   -5.8741   22.8767 H   0  0  0  0  0  0
    8.3697   -6.0515   24.5286 H   0  0  0  0  0  0
    9.0681   -3.9427   22.7091 H   0  0  0  0  0  0
    9.5590   -3.8193   24.3838 H   0  0  0  0  0  0
    8.2394    0.3283   22.4501 H   0  0  0  0  0  0
    7.5921   -1.2520   19.4357 H   0  0  0  0  0  0
    4.7715    1.3463   17.9246 H   0  0  0  0  0  0
    3.6530    3.0848   19.3582 H   0  0  0  0  0  0
    3.4269    4.1853   21.5558 H   0  0  0  0  0  0
    4.8114    3.4660   23.4606 H   0  0  0  0  0  0
    6.4137    1.6283   23.2111 H   0  0  0  0  0  0
    8.4868   -1.9866   25.7641 H   0  0  0  0  0  0
    6.9800   -1.6345   24.9894 H   0  0  0  0  0  0
    7.9581    0.3616   26.1335 H   0  0  0  0  0  0
    7.8206    0.6545   24.4156 H   0  0  0  0  0  0
   11.8821    1.3658   24.2734 H   0  0  0  0  0  0
   10.7094   -2.7682   21.8468 H   0  0  0  0  0  0
  1  2  1  0  0  0
  1 29  1  0  0  0
  1 30  1  0  0  0
  1 31  1  0  0  0
  2  3  1  0  0  0
  3  4  1  0  0  0
  3 32  1  0  0  0
  3 33  1  0  0  0
  4 28  1  0  0  0
  4  5  1  0  0  0
  4 18  1  0  0  0
  5  6  2  0  0  0
  5  7  1  0  0  0
  7  8  1  0  0  0
  7 34  1  0  0  0
  8 17  2  0  0  0
  8  9  1  0  0  0
  9 10  2  0  0  0
  9 35  1  0  0  0
 10 11  1  0  0  0
 11 12  2  0  0  0
 11 36  1  0  0  0
 12 17  1  0  0  0
 12 13  1  0  0  0
 13 14  2  0  0  0
 13 37  1  0  0  0
 14 15  1  0  0  0
 14 38  1  0  0  0
 15 16  2  0  0  0
 15 39  1  0  0  0
 16 17  1  0  0  0
 16 40  1  0  0  0
 18 19  1  0  0  0
 18 41  1  0  0  0
 18 42  1  0  0  0
 19 20  1  0  0  0
 19 43  1  0  0  0
 19 44  1  0  0  0
 20 21  1  0  0  0
 21 28  2  0  0  0
 21 22  1  0  0  0
 22 23  2  0  0  0
 22 45  1  0  0  0
 23 24  1  0  0  0
 23 25  1  0  0  0
 25 26  1  0  0  0
 25 27  2  0  0  0
 27 28  1  0  0  0
 27 46  1  0  0  0
M  END
> <r_i_docking_score>
-5.58216411660604

$$$$
ligprep_5.maegz:4
                    3D
 Schrodinger Suite 2020-4.
 46 49  0  0  1  0            999 V2000
    7.5871   -5.5981   23.9184 C   0  0  0  0  0  0
    7.5591   -4.1872   24.0851 O   0  0  0  0  0  0
    8.7690   -3.5480   23.6803 C   0  0  0  0  0  0
    8.6440   -1.9907   23.5929 C   0  0  1  0  0  0
    7.6850   -1.6268   22.3966 C   0  0  0  0  0  0
    6.9437   -2.4813   21.9031 O   0  0  0  0  0  0
    7.6849   -0.3472   21.9489 N   0  0  0  0  0  0
    6.8696    0.1500   20.9120 C   0  0  0  0  0  0
    6.9348   -0.4178   19.6337 C   0  0  0  0  0  0
    6.1994    0.0022   18.5784 N   0  0  0  0  0  0
    5.3483    1.0321   18.7826 C   0  0  0  0  0  0
    5.1725    1.6883   20.0189 C   0  0  0  0  0  0
    4.2455    2.7456   20.1963 C   0  0  0  0  0  0
    4.1228    3.3669   21.4362 C   0  0  0  0  0  0
    4.9117    2.9666   22.5081 C   0  0  0  0  0  0
    5.8271    1.9281   22.3608 C   0  0  0  0  0  0
    5.9739    1.2497   21.1205 C   0  0  0  0  0  0
    8.0518   -1.4418   24.9267 C   0  0  0  0  0  0
    8.3368    0.0519   25.1578 C   0  0  0  0  0  0
    9.7295    0.3417   25.0998 O   0  0  0  0  0  0
   10.4214   -0.1853   24.0293 C   0  0  0  0  0  0
   11.6178    0.4676   23.7359 C   0  0  0  0  0  0
   12.4916   -0.0585   22.7885 C   0  0  0  0  0  0
   13.9696    0.7703   22.4503 Cl  0  0  0  0  0  0
   12.1764   -1.2631   22.1571 C   0  0  0  0  0  0
   13.3077   -2.0494   21.1074 Cl  0  0  0  0  0  0
   10.9412   -1.8664   22.3938 C   0  0  0  0  0  0
   10.0294   -1.3478   23.3300 C   0  0  0  0  0  0
    6.6292   -6.0301   24.2163 H   0  0  0  0  0  0
    7.7542   -5.8741   22.8767 H   0  0  0  0  0  0
    8.3697   -6.0515   24.5286 H   0  0  0  0  0  0
    9.0681   -3.9427   22.7091 H   0  0  0  0  0  0
    9.5590   -3.8193   24.3838 H   0  0  0  0  0  0
    8.2394    0.3283   22.4501 H   0  0  0  0  0  0
    7.5921   -1.2520   19.4357 H   0  0  0  0  0  0
    4.7715    1.3463   17.9246 H   0  0  0  0  0  0
    3.6530    3.0848   19.3582 H   0  0  0  0  0  0
    3.4269    4.1853   21.5558 H   0  0  0  0  0  0
    4.8114    3.4660   23.4606 H   0  0  0  0  0  0
    6.4137    1.6283   23.2111 H   0  0  0  0  0  0
    8.4868   -1.9866   25.7641 H   0  0  0  0  0  0
    6.9800   -1.6345   24.9894 H   0  0  0  0  0  0
    7.9581    0.3616   26.1335 H   0  0  0  0  0  0
    7.8206    0.6545   24.4156 H   0  0  0  0  0  0
   11.8821    1.3658   24.2734 H   0  0  0  0  0  0
   10.7094   -2.7682   21.8468 H   0  0  0  0  0  0
  1  2  1  0  0  0
  1 29  1  0  0  0
  1 30  1  0  0  0
  1 31  1  0  0  0
  2  3  1  0  0  0
  3  4  1  0  0  0
  3 32  1  0  0  0
  3 33  1  0  0  0
  4 28  1  0  0  0
  4  5  1  0  0  0
  4 18  1  0  0  0
  5  6  2  0  0  0
  5  7  1  0  0  0
  7  8  1  0  0  0
  7 34  1  0  0  0
  8 17  2  0  0  0
  8  9  1  0  0  0
  9 10  2  0  0  0
  9 35  1  0  0  0
 10 11  1  0  0  0
 11 12  2  0  0  0
 11 36  1  0  0  0
 12 17  1  0  0  0
 12 13  1  0  0  0
 13 14  2  0  0  0
 13 37  1  0  0  0
 14 15  1  0  0  0
 14 38  1  0  0  0
 15 16  2  0  0  0
 15 39  1  0  0  0
 16 17  1  0  0  0
 16 40  1  0  0  0
 18 19  1  0  0  0
 18 41  1  0  0  0
 18 42  1  0  0  0
 19 20  1  0  0  0
 19 43  1  0  0  0
 19 44  1  0  0  0
 20 21  1  0  0  0
 21 28  2  0  0  0
 21 22  1  0  0  0
 22 23  2  0  0  0
 22 45  1  0  0  0
 23 24  1  0  0  0
 23 25  1  0  0  0
 25 26  1  0  0  0
 25 27  2  0  0  0
 27 28  1  0  0  0
 27 46  1  0  0  0
M  END
> <r_i_docking_score>
-5.58216411660604

$$$$
ligprep_5.maegz:5
                    3D
 Schrodinger Suite 2020-4.
 57 61  0  0  1  0            999 V2000
   13.9638    0.3509   22.3108 C   0  0  0  0  0  0
   12.7725    1.0889   22.8601 C   0  0  0  0  0  0
   12.6346    2.4003   22.7216 N   0  0  0  0  0  0
   11.4767    2.6244   23.2897 C   0  0  0  0  0  0
   10.9591    1.4392   23.7503 N   0  0  0  0  0  0
   11.8201    0.4541   23.5061 N   0  0  0  0  0  0
    9.6879    1.2673   24.4460 C   0  0  0  0  0  0
    8.6675    2.3447   23.9474 C   0  0  2  0  0  0
    8.2145    2.0532   22.4816 C   0  0  0  0  0  0
    9.0224    1.9442   21.5580 O   0  0  0  0  0  0
    6.8895    1.8989   22.2841 N   0  0  0  0  0  0
    6.2273    1.4768   21.0235 C   0  0  1  0  0  0
    6.0815   -0.0706   20.8640 C   0  0  0  0  0  0
    5.5760   -0.4960   19.8260 O   0  0  0  0  0  0
    6.5271   -0.8494   21.8808 N   0  0  0  0  0  0
    6.5280   -2.2588   22.0367 C   0  0  0  0  0  0
    5.9695   -3.1457   21.1022 C   0  0  0  0  0  0
    5.9918   -4.4939   21.2111 N   0  0  0  0  0  0
    6.6238   -5.0203   22.2817 C   0  0  0  0  0  0
    7.2294   -4.2597   23.3047 C   0  0  0  0  0  0
    7.8946   -4.8542   24.4061 C   0  0  0  0  0  0
    8.4523   -4.0563   25.3999 C   0  0  0  0  0  0
    8.3485   -2.6727   25.3314 C   0  0  0  0  0  0
    7.7074   -2.0614   24.2570 C   0  0  0  0  0  0
    7.1522   -2.8342   23.1976 C   0  0  0  0  0  0
    4.9031    2.2058   20.8283 C   0  0  0  0  0  0
    4.3771    2.3469   19.5350 C   0  0  0  0  0  0
    3.1697    3.0139   19.3169 C   0  0  0  0  0  0
    2.4540    3.5329   20.3925 C   0  0  0  0  0  0
    2.9536    3.3971   21.6852 C   0  0  0  0  0  0
    2.0622    4.0257   23.0226 Cl  0  0  0  0  0  0
    4.1704    2.7471   21.9004 C   0  0  0  0  0  0
    9.3603    3.7356   24.0888 C   0  0  0  0  0  0
   10.6962    3.9331   23.3228 C   0  0  0  0  0  0
   14.7704    1.0099   21.9885 H   0  0  0  0  0  0
   14.3695   -0.3006   23.0840 H   0  0  0  0  0  0
   13.6849   -0.3340   21.5119 H   0  0  0  0  0  0
    9.3334    0.2436   24.3411 H   0  0  0  0  0  0
    9.8925    1.4311   25.5073 H   0  0  0  0  0  0
    7.7741    2.3095   24.5717 H   0  0  0  0  0  0
    6.2713    2.0067   23.0740 H   0  0  0  0  0  0
    6.8793    1.7955   20.2064 H   0  0  0  0  0  0
    6.9348   -0.3390   22.6466 H   0  0  0  0  0  0
    5.5025   -2.7980   20.1957 H   0  0  0  0  0  0
    6.6539   -6.0995   22.3300 H   0  0  0  0  0  0
    7.9697   -5.9293   24.4692 H   0  0  0  0  0  0
    8.9617   -4.5161   26.2355 H   0  0  0  0  0  0
    8.7723   -2.0660   26.1191 H   0  0  0  0  0  0
    7.6222   -0.9890   24.2333 H   0  0  0  0  0  0
    4.9139    1.9563   18.6822 H   0  0  0  0  0  0
    2.8038    3.1460   18.3085 H   0  0  0  0  0  0
    1.5213    4.0496   20.2188 H   0  0  0  0  0  0
    4.5176    2.6510   22.9166 H   0  0  0  0  0  0
    8.6528    4.5479   23.9161 H   0  0  0  0  0  0
    9.5777    3.8647   25.1511 H   0  0  0  0  0  0
   11.2868    4.7413   23.7565 H   0  0  0  0  0  0
   10.4751    4.2430   22.3081 H   0  0  0  0  0  0
  1  2  1  0  0  0
  1 35  1  0  0  0
  1 36  1  0  0  0
  1 37  1  0  0  0
  2  6  2  0  0  0
  2  3  1  0  0  0
  3  4  2  0  0  0
  4 34  1  0  0  0
  4  5  1  0  0  0
  5  6  1  0  0  0
  5  7  1  0  0  0
  7  8  1  0  0  0
  7 38  1  0  0  0
  7 39  1  0  0  0
  8  9  1  0  0  0
  8 33  1  0  0  0
  8 40  1  0  0  0
  9 10  2  0  0  0
  9 11  1  0  0  0
 11 12  1  0  0  0
 11 41  1  0  0  0
 12 13  1  0  0  0
 12 26  1  0  0  0
 12 42  1  0  0  0
 13 14  2  0  0  0
 13 15  1  0  0  0
 15 16  1  0  0  0
 15 43  1  0  0  0
 16 25  2  0  0  0
 16 17  1  0  0  0
 17 18  2  0  0  0
 17 44  1  0  0  0
 18 19  1  0  0  0
 19 20  2  0  0  0
 19 45  1  0  0  0
 20 25  1  0  0  0
 20 21  1  0  0  0
 21 22  2  0  0  0
 21 46  1  0  0  0
 22 23  1  0  0  0
 22 47  1  0  0  0
 23 24  2  0  0  0
 23 48  1  0  0  0
 24 25  1  0  0  0
 24 49  1  0  0  0
 26 32  2  0  0  0
 26 27  1  0  0  0
 27 28  2  0  0  0
 27 50  1  0  0  0
 28 29  1  0  0  0
 28 51  1  0  0  0
 29 30  2  0  0  0
 29 52  1  0  0  0
 30 31  1  0  0  0
 30 32  1  0  0  0
 32 53  1  0  0  0
 33 34  1  0  0  0
 33 54  1  0  0  0
 33 55  1  0  0  0
 34 56  1  0  0  0
 34 57  1  0  0  0
M  END
> <r_i_docking_score>
-5.71728907135676

$$$$
ligprep_5.maegz:6
                    3D
 Schrodinger Suite 2020-4.
 39 42  0  0  1  0            999 V2000
    9.9698   -1.2277   24.7083 O   0  0  0  0  0  0
    9.7487   -1.5861   23.5521 C   0  0  0  0  0  0
    8.6690   -2.3122   23.1846 N   0  0  0  0  0  0
    7.5991   -2.7596   23.9972 C   0  0  0  0  0  0
    7.2384   -2.1321   25.2043 C   0  0  0  0  0  0
    6.2154   -2.5260   25.9960 N   0  0  0  0  0  0
    5.4811   -3.5800   25.5840 C   0  0  0  0  0  0
    5.7054   -4.2887   24.3870 C   0  0  0  0  0  0
    4.8868   -5.3720   23.9897 C   0  0  0  0  0  0
    5.1504   -6.0362   22.7978 C   0  0  0  0  0  0
    6.2208   -5.6591   21.9942 C   0  0  0  0  0  0
    7.0427   -4.5956   22.3606 C   0  0  0  0  0  0
    6.8021   -3.8732   23.5658 C   0  0  0  0  0  0
   10.7765   -1.2363   22.4485 C   0  0  2  0  0  0
   11.9339   -2.2573   22.5299 C   0  0  0  0  0  0
   13.1655   -1.7618   21.7651 C   0  0  0  0  0  0
   13.6318   -0.5260   22.3080 O   0  0  0  0  0  0
   12.6791    0.4628   22.4660 C   0  0  0  0  0  0
   13.1744    1.7660   22.5189 C   0  0  0  0  0  0
   12.3114    2.8398   22.7129 C   0  0  0  0  0  0
   12.8129    4.0969   22.7713 F   0  0  0  0  0  0
   10.9411    2.6083   22.8521 C   0  0  0  0  0  0
    9.8512    3.9230   23.1078 Cl  0  0  0  0  0  0
   10.4452    1.3032   22.7861 C   0  0  0  0  0  0
   11.3005    0.2019   22.6153 C   0  0  0  0  0  0
    8.6402   -2.6224   22.2269 H   0  0  0  0  0  0
    7.7584   -1.2623   25.5712 H   0  0  0  0  0  0
    4.6666   -3.8701   26.2331 H   0  0  0  0  0  0
    4.0574   -5.6786   24.6121 H   0  0  0  0  0  0
    4.5162   -6.8524   22.4940 H   0  0  0  0  0  0
    6.4150   -6.1987   21.0788 H   0  0  0  0  0  0
    7.8697   -4.3273   21.7209 H   0  0  0  0  0  0
   10.2650   -1.3347   21.4891 H   0  0  0  0  0  0
   11.6159   -3.2189   22.1267 H   0  0  0  0  0  0
   12.2380   -2.4429   23.5588 H   0  0  0  0  0  0
   12.9274   -1.6528   20.7082 H   0  0  0  0  0  0
   13.9679   -2.4940   21.8340 H   0  0  0  0  0  0
   14.2331    1.9481   22.4019 H   0  0  0  0  0  0
    9.3799    1.1438   22.8796 H   0  0  0  0  0  0
  1  2  2  0  0  0
  2  3  1  0  0  0
  2 14  1  0  0  0
  3  4  1  0  0  0
  3 26  1  0  0  0
  4 13  2  0  0  0
  4  5  1  0  0  0
  5  6  2  0  0  0
  5 27  1  0  0  0
  6  7  1  0  0  0
  7  8  2  0  0  0
  7 28  1  0  0  0
  8 13  1  0  0  0
  8  9  1  0  0  0
  9 10  2  0  0  0
  9 29  1  0  0  0
 10 11  1  0  0  0
 10 30  1  0  0  0
 11 12  2  0  0  0
 11 31  1  0  0  0
 12 13  1  0  0  0
 12 32  1  0  0  0
 14 15  1  0  0  0
 14 25  1  0  0  0
 14 33  1  0  0  0
 15 16  1  0  0  0
 15 34  1  0  0  0
 15 35  1  0  0  0
 16 17  1  0  0  0
 16 36  1  0  0  0
 16 37  1  0  0  0
 17 18  1  0  0  0
 18 25  2  0  0  0
 18 19  1  0  0  0
 19 20  2  0  0  0
 19 38  1  0  0  0
 20 21  1  0  0  0
 20 22  1  0  0  0
 22 23  1  0  0  0
 22 24  2  0  0  0
 24 25  1  0  0  0
 24 39  1  0  0  0
M  END
> <r_i_docking_score>
-6.64634558147065

$$$$
ligprep_5.maegz:7
                    3D
 Schrodinger Suite 2020-4.
 63 67  0  0  1  0            999 V2000
    8.5652   -1.0497   26.3895 O   0  0  0  0  0  0
    8.6769   -0.7082   25.2108 C   0  0  0  0  0  0
    8.1944    0.4332   24.6740 N   0  0  0  0  0  0
    7.5072    1.5071   25.2765 C   0  0  0  0  0  0
    6.9771    1.4583   26.5775 C   0  0  0  0  0  0
    6.3030    2.4742   27.1616 N   0  0  0  0  0  0
    6.1234    3.5997   26.4383 C   0  0  0  0  0  0
    6.5926    3.7910   25.1216 C   0  0  0  0  0  0
    6.3701    4.9917   24.4008 C   0  0  0  0  0  0
    6.8564    5.1263   23.1042 C   0  0  0  0  0  0
    7.5728    4.0940   22.5111 C   0  0  0  0  0  0
    7.8066    2.9022   23.1941 C   0  0  0  0  0  0
    7.3144    2.7129   24.5194 C   0  0  0  0  0  0
    9.4353   -1.6259   24.2078 C   0  0  2  0  0  0
    9.5705   -3.0158   24.7017 N   0  0  0  0  0  0
    8.6981   -4.0463   24.7274 C   0  0  0  0  0  0
    8.9620   -5.0235   25.4262 O   0  0  0  0  0  0
    7.3921   -4.0840   23.8929 C   0  0  1  0  0  0
    6.1555   -3.5747   24.6444 C   0  0  0  0  0  0
    5.3016   -3.0053   23.5252 C   0  0  0  0  0  0
    6.3642   -2.3919   22.6076 C   0  0  2  0  0  0
    5.9734   -2.3011   21.1175 C   0  0  0  0  0  0
    5.5695   -3.3244   20.5586 O   0  0  0  0  0  0
    6.1862   -1.1478   20.4327 N   0  0  0  0  0  0
    6.4697    0.1583   21.0438 C   0  0  0  0  0  0
    6.4996    1.1163   19.8511 C   0  0  0  0  0  0
    5.6425    0.4306   18.8025 C   0  0  0  0  0  0
    5.9756   -1.0475   18.9844 C   0  0  0  0  0  0
    7.4704   -3.2932   22.7088 O   0  0  0  0  0  0
   10.7555   -1.1135   23.6271 C   0  0  0  0  0  0
   11.5158   -1.9585   22.8017 C   0  0  0  0  0  0
   12.6675   -1.5051   22.1582 C   0  0  0  0  0  0
   13.0745   -0.1813   22.3082 C   0  0  0  0  0  0
   12.3295    0.6819   23.1105 C   0  0  0  0  0  0
   12.7733    2.3431   23.2501 Cl  0  0  0  0  0  0
   11.1964    0.2159   23.7778 C   0  0  0  0  0  0
    8.3864    0.5628   23.6935 H   0  0  0  0  0  0
    7.0703    0.5849   27.2051 H   0  0  0  0  0  0
    5.5758    4.3900   26.9289 H   0  0  0  0  0  0
    5.8178    5.7994   24.8593 H   0  0  0  0  0  0
    6.6774    6.0374   22.5502 H   0  0  0  0  0  0
    7.9564    4.2263   21.5097 H   0  0  0  0  0  0
    8.3702    2.1237   22.7050 H   0  0  0  0  0  0
    8.8145   -1.6133   23.3228 H   0  0  0  0  0  0
   10.3995   -3.1590   25.2585 H   0  0  0  0  0  0
    7.2526   -5.1230   23.5861 H   0  0  0  0  0  0
    5.6447   -4.3751   25.1822 H   0  0  0  0  0  0
    6.4095   -2.8003   25.3729 H   0  0  0  0  0  0
    4.7153   -3.7775   23.0220 H   0  0  0  0  0  0
    4.5928   -2.2568   23.8826 H   0  0  0  0  0  0
    6.6153   -1.4027   22.9814 H   0  0  0  0  0  0
    5.6557    0.4495   21.7110 H   0  0  0  0  0  0
    7.4284    0.1761   21.5630 H   0  0  0  0  0  0
    6.1480    2.1169   20.1100 H   0  0  0  0  0  0
    7.5225    1.2127   19.4806 H   0  0  0  0  0  0
    5.8322    0.7798   17.7865 H   0  0  0  0  0  0
    4.5850    0.6103   19.0082 H   0  0  0  0  0  0
    6.9126   -1.2518   18.4640 H   0  0  0  0  0  0
    5.1698   -1.6861   18.6276 H   0  0  0  0  0  0
   11.1975   -2.9751   22.6237 H   0  0  0  0  0  0
   13.2229   -2.1768   21.5198 H   0  0  0  0  0  0
   13.9482    0.1800   21.7846 H   0  0  0  0  0  0
   10.6629    0.9247   24.3903 H   0  0  0  0  0  0
  1  2  2  0  0  0
  2  3  1  0  0  0
  2 14  1  0  0  0
  3  4  1  0  0  0
  3 37  1  0  0  0
  4 13  2  0  0  0
  4  5  1  0  0  0
  5  6  2  0  0  0
  5 38  1  0  0  0
  6  7  1  0  0  0
  7  8  2  0  0  0
  7 39  1  0  0  0
  8 13  1  0  0  0
  8  9  1  0  0  0
  9 10  2  0  0  0
  9 40  1  0  0  0
 10 11  1  0  0  0
 10 41  1  0  0  0
 11 12  2  0  0  0
 11 42  1  0  0  0
 12 13  1  0  0  0
 12 43  1  0  0  0
 14 15  1  0  0  0
 14 30  1  0  0  0
 14 44  1  0  0  0
 15 16  1  0  0  0
 15 45  1  0  0  0
 16 17  2  0  0  0
 16 18  1  0  0  0
 18 19  1  0  0  0
 18 29  1  0  0  0
 18 46  1  0  0  0
 19 20  1  0  0  0
 19 47  1  0  0  0
 19 48  1  0  0  0
 20 21  1  0  0  0
 20 49  1  0  0  0
 20 50  1  0  0  0
 21 22  1  0  0  0
 21 29  1  0  0  0
 21 51  1  0  0  0
 22 23  2  0  0  0
 22 24  1  0  0  0
 24 28  1  0  0  0
 24 25  1  0  0  0
 25 26  1  0  0  0
 25 52  1  0  0  0
 25 53  1  0  0  0
 26 27  1  0  0  0
 26 54  1  0  0  0
 26 55  1  0  0  0
 27 28  1  0  0  0
 27 56  1  0  0  0
 27 57  1  0  0  0
 28 58  1  0  0  0
 28 59  1  0  0  0
 30 36  2  0  0  0
 30 31  1  0  0  0
 31 32  2  0  0  0
 31 60  1  0  0  0
 32 33  1  0  0  0
 32 61  1  0  0  0
 33 34  2  0  0  0
 33 62  1  0  0  0
 34 35  1  0  0  0
 34 36  1  0  0  0
 36 63  1  0  0  0
M  END
> <r_i_docking_score>
-5.41663274822339

$$$$
ligprep_5.maegz:8
                    3D
 Schrodinger Suite 2020-4.
 41 44  0  0  1  0            999 V2000
    9.5079    1.0833   25.3632 N   0  0  0  0  0  0
    9.9768    0.5778   24.0814 C   0  0  2  0  0  0
    8.7496    0.5645   23.1019 C   0  0  0  0  0  0
    8.2362   -0.5062   22.7619 O   0  0  0  0  0  0
    8.2306    1.7632   22.7547 N   0  0  0  0  0  0
    7.0697    2.0108   22.0034 C   0  0  0  0  0  0
    6.1918    2.9604   22.5350 C   0  0  0  0  0  0
    5.0247    3.3255   21.9601 N   0  0  0  0  0  0
    4.7072    2.7469   20.7833 C   0  0  0  0  0  0
    5.5084    1.7968   20.1149 C   0  0  0  0  0  0
    5.1403    1.2487   18.8653 C   0  0  0  0  0  0
    5.9685    0.3260   18.2405 C   0  0  0  0  0  0
    7.1698   -0.0536   18.8199 C   0  0  0  0  0  0
    7.5671    0.4843   20.0381 C   0  0  0  0  0  0
    6.7393    1.4099   20.7362 C   0  0  0  0  0  0
   10.5521   -0.8526   24.2600 C   0  0  0  0  0  0
   11.3271   -1.3174   23.0083 C   0  0  0  0  0  0
   12.4400   -0.4599   22.7569 O   0  0  0  0  0  0
   12.2044    0.8993   22.8377 C   0  0  0  0  0  0
   13.2249    1.6878   22.3080 C   0  0  0  0  0  0
   13.1575    3.0752   22.3903 C   0  0  0  0  0  0
   12.0742    3.6751   23.0248 C   0  0  0  0  0  0
   12.0059    5.3940   23.1707 Cl  0  0  0  0  0  0
   11.0568    2.8847   23.5614 C   0  0  0  0  0  0
   11.0898    1.4787   23.4877 C   0  0  0  0  0  0
    8.8717    0.4097   25.7663 H   0  0  0  0  0  0
   10.2683    1.1409   26.0298 H   0  0  0  0  0  0
    8.5922    2.5510   23.2685 H   0  0  0  0  0  0
    6.4062    3.4483   23.4745 H   0  0  0  0  0  0
    3.7859    3.0805   20.3282 H   0  0  0  0  0  0
    4.2171    1.5562   18.3951 H   0  0  0  0  0  0
    5.6833   -0.0908   17.2860 H   0  0  0  0  0  0
    7.8071   -0.7614   18.3079 H   0  0  0  0  0  0
    8.5190    0.1869   20.4438 H   0  0  0  0  0  0
    9.7741   -1.5756   24.5125 H   0  0  0  0  0  0
   11.2386   -0.8530   25.1063 H   0  0  0  0  0  0
   10.6790   -1.3378   22.1304 H   0  0  0  0  0  0
   11.6982   -2.3331   23.1524 H   0  0  0  0  0  0
   14.0781    1.2206   21.8392 H   0  0  0  0  0  0
   13.9546    3.6801   21.9844 H   0  0  0  0  0  0
   10.2340    3.3736   24.0627 H   0  0  0  0  0  0
  1  2  1  0  0  0
  1 26  1  0  0  0
  1 27  1  0  0  0
  2 25  1  0  0  0
  2  3  1  0  0  0
  2 16  1  0  0  0
  3  4  2  0  0  0
  3  5  1  0  0  0
  5  6  1  0  0  0
  5 28  1  0  0  0
  6 15  2  0  0  0
  6  7  1  0  0  0
  7  8  2  0  0  0
  7 29  1  0  0  0
  8  9  1  0  0  0
  9 10  2  0  0  0
  9 30  1  0  0  0
 10 15  1  0  0  0
 10 11  1  0  0  0
 11 12  2  0  0  0
 11 31  1  0  0  0
 12 13  1  0  0  0
 12 32  1  0  0  0
 13 14  2  0  0  0
 13 33  1  0  0  0
 14 15  1  0  0  0
 14 34  1  0  0  0
 16 17  1  0  0  0
 16 35  1  0  0  0
 16 36  1  0  0  0
 17 18  1  0  0  0
 17 37  1  0  0  0
 17 38  1  0  0  0
 18 19  1  0  0  0
 19 25  2  0  0  0
 19 20  1  0  0  0
 20 21  2  0  0  0
 20 39  1  0  0  0
 21 22  1  0  0  0
 21 40  1  0  0  0
 22 23  1  0  0  0
 22 24  2  0  0  0
 24 25  1  0  0  0
 24 41  1  0  0  0
M  END
> <r_i_docking_score>
-6.36160339052929

$$$$
ligprep_5.maegz:9
                    3D
 Schrodinger Suite 2020-4.
 69 72  0  0  1  0            999 V2000
    4.6639   -2.4228   24.0431 C   0  0  0  0  0  0
    4.9861   -3.6774   23.2489 C   0  0  0  0  0  0
    4.1040   -4.7612   23.3295 C   0  0  0  0  0  0
    4.4488   -5.9584   22.7077 C   0  0  0  0  0  0
    5.5709   -6.0902   21.9608 N   0  0  0  0  0  0
    6.4002   -5.0315   21.8492 C   0  0  0  0  0  0
    6.1656   -3.8060   22.4806 C   0  0  0  0  0  0
    7.2621   -2.7504   22.4054 C   0  0  2  0  0  0
    7.9461   -2.6804   23.8108 C   0  0  0  0  0  0
    7.9712   -1.6465   24.4762 O   0  0  0  0  0  0
    8.4695   -3.8416   24.2422 N   0  0  0  0  0  0
    9.1356   -4.0754   25.5195 C   0  0  0  0  0  0
    8.7673   -5.4361   26.1407 C   0  0  0  0  0  0
    7.3438   -5.5582   26.6855 C   0  0  0  0  0  0
    6.2372   -5.6526   25.8412 C   0  0  0  0  0  0
    4.9571   -5.8543   26.3684 C   0  0  0  0  0  0
    4.7706   -5.9380   27.7466 C   0  0  0  0  0  0
    5.8684   -5.8355   28.5955 C   0  0  0  0  0  0
    5.7069   -5.9312   29.9329 F   0  0  0  0  0  0
    7.1408   -5.6525   28.0606 C   0  0  0  0  0  0
    6.9011   -1.4692   21.6779 N   0  0  0  0  0  0
    6.0835   -1.4743   20.5609 C   0  0  0  0  0  0
    5.5699   -2.4987   20.0993 O   0  0  0  0  0  0
    5.8334   -0.2471   19.8207 C   0  0  0  0  0  0
    5.9766   -0.1134   18.4445 C   0  0  0  0  0  0
    5.5709    1.1271   18.0931 O   0  0  0  0  0  0
    5.1933    1.6750   19.2699 C   0  0  0  0  0  0
    5.3401    0.8834   20.3073 N   0  0  0  0  0  0
    7.7264   -0.3473   21.9159 C   0  0  0  0  0  0
    9.0617   -0.3831   21.5100 C   0  0  0  0  0  0
    9.9287    0.6292   21.9081 C   0  0  0  0  0  0
    9.4686    1.7067   22.6816 C   0  0  0  0  0  0
   10.4452    2.7634   23.2513 C   0  0  0  0  0  0
    9.8092    4.1785   23.2837 C   0  0  0  0  0  0
   11.7631    2.8852   22.4403 C   0  0  0  0  0  0
   10.8066    2.3290   24.6839 C   0  0  0  0  0  0
    8.1105    1.7501   23.0339 C   0  0  0  0  0  0
    7.2432    0.7301   22.6585 C   0  0  0  0  0  0
    3.6082   -2.3729   24.3077 H   0  0  0  0  0  0
    5.2525   -2.3899   24.9601 H   0  0  0  0  0  0
    4.8891   -1.5249   23.4714 H   0  0  0  0  0  0
    3.1939   -4.6931   23.9063 H   0  0  0  0  0  0
    3.8189   -6.8403   22.7624 H   0  0  0  0  0  0
    7.2925   -5.1931   21.2606 H   0  0  0  0  0  0
    8.0660   -3.1334   21.7745 H   0  0  0  0  0  0
    8.4191   -4.6331   23.6175 H   0  0  0  0  0  0
   10.2181   -3.9966   25.4108 H   0  0  0  0  0  0
    8.8524   -3.2951   26.2305 H   0  0  0  0  0  0
    8.9430   -6.2267   25.4144 H   0  0  0  0  0  0
    9.4765   -5.6517   26.9420 H   0  0  0  0  0  0
    6.3747   -5.6135   24.7721 H   0  0  0  0  0  0
    4.1061   -5.9595   25.7157 H   0  0  0  0  0  0
    3.7863   -6.0960   28.1593 H   0  0  0  0  0  0
    7.9869   -5.6382   28.7125 H   0  0  0  0  0  0
    6.3134   -0.7620   17.6486 H   0  0  0  0  0  0
    4.8308    2.6938   19.2293 H   0  0  0  0  0  0
    9.4430   -1.2226   20.9440 H   0  0  0  0  0  0
   10.9647    0.5289   21.6301 H   0  0  0  0  0  0
   10.5400    4.9452   23.5505 H   0  0  0  0  0  0
    9.0076    4.2577   24.0170 H   0  0  0  0  0  0
    9.3904    4.4526   22.3118 H   0  0  0  0  0  0
   12.3568    1.9718   22.4600 H   0  0  0  0  0  0
   11.5704    3.1478   21.4011 H   0  0  0  0  0  0
   12.4088    3.6665   22.8438 H   0  0  0  0  0  0
   11.2046    1.3133   24.7078 H   0  0  0  0  0  0
   11.5683    2.9790   25.1065 H   0  0  0  0  0  0
    9.9419    2.3492   25.3483 H   0  0  0  0  0  0
    7.7187    2.5457   23.6471 H   0  0  0  0  0  0
    6.2134    0.7510   22.9870 H   0  0  0  0  0  0
  1  2  1  0  0  0
  1 39  1  0  0  0
  1 40  1  0  0  0
  1 41  1  0  0  0
  2  7  2  0  0  0
  2  3  1  0  0  0
  3  4  2  0  0  0
  3 42  1  0  0  0
  4  5  1  0  0  0
  4 43  1  0  0  0
  5  6  2  0  0  0
  6  7  1  0  0  0
  6 44  1  0  0  0
  7  8  1  0  0  0
  8  9  1  0  0  0
  8 21  1  0  0  0
  8 45  1  0  0  0
  9 10  2  0  0  0
  9 11  1  0  0  0
 11 12  1  0  0  0
 11 46  1  0  0  0
 12 13  1  0  0  0
 12 47  1  0  0  0
 12 48  1  0  0  0
 13 14  1  0  0  0
 13 49  1  0  0  0
 13 50  1  0  0  0
 14 20  2  0  0  0
 14 15  1  0  0  0
 15 16  2  0  0  0
 15 51  1  0  0  0
 16 17  1  0  0  0
 16 52  1  0  0  0
 17 18  2  0  0  0
 17 53  1  0  0  0
 18 19  1  0  0  0
 18 20  1  0  0  0
 20 54  1  0  0  0
 21 22  1  0  0  0
 21 29  1  0  0  0
 22 23  2  0  0  0
 22 24  1  0  0  0
 24 28  1  0  0  0
 24 25  2  0  0  0
 25 26  1  0  0  0
 25 55  1  0  0  0
 26 27  1  0  0  0
 27 28  2  0  0  0
 27 56  1  0  0  0
 29 38  2  0  0  0
 29 30  1  0  0  0
 30 31  2  0  0  0
 30 57  1  0  0  0
 31 32  1  0  0  0
 31 58  1  0  0  0
 32 33  1  0  0  0
 32 37  2  0  0  0
 33 34  1  0  0  0
 33 35  1  0  0  0
 33 36  1  0  0  0
 34 59  1  0  0  0
 34 60  1  0  0  0
 34 61  1  0  0  0
 35 62  1  0  0  0
 35 63  1  0  0  0
 35 64  1  0  0  0
 36 65  1  0  0  0
 36 66  1  0  0  0
 36 67  1  0  0  0
 37 38  1  0  0  0
 37 68  1  0  0  0
 38 69  1  0  0  0
M  END
> <r_i_docking_score>
-4.90446361768454

$$$$
ligprep_5.maegz:10
                    3D
 Schrodinger Suite 2020-4.
 69 72  0  0  1  0            999 V2000
    5.5697   -1.8797   19.7060 C   0  0  0  0  0  0
    6.0254   -1.9516   21.0538 O   0  0  0  0  0  0
    6.3700   -3.1727   21.6060 C   0  0  0  0  0  0
    5.9696   -4.3274   20.9957 N   0  0  0  0  0  0
    6.3665   -5.5045   21.5440 C   0  0  0  0  0  0
    7.1700   -5.5354   22.6813 C   0  0  0  0  0  0
    7.5634   -4.3957   23.3025 N   0  0  0  0  0  0
    7.1482   -3.2076   22.7725 C   0  0  0  0  0  0
    7.5447   -1.9234   23.5006 C   0  0  2  0  0  0
    9.0347   -1.7906   23.9196 C   0  0  0  0  0  0
    9.3350   -1.0425   24.8506 O   0  0  0  0  0  0
    9.9529   -2.4532   23.1948 N   0  0  0  0  0  0
   11.3993   -2.3077   23.3596 C   0  0  0  0  0  0
   12.0614   -1.4150   22.2904 C   0  0  0  0  0  0
   11.6428    0.0526   22.3228 C   0  0  0  0  0  0
   10.3618    0.4380   21.9080 C   0  0  0  0  0  0
    9.9792    1.7775   21.9411 C   0  0  0  0  0  0
   10.8891    2.7466   22.3613 C   0  0  0  0  0  0
   12.1751    2.3790   22.7477 C   0  0  0  0  0  0
   13.0645    3.3318   23.1074 F   0  0  0  0  0  0
   12.5494    1.0344   22.7430 C   0  0  0  0  0  0
    6.5804   -1.5971   24.6035 N   0  0  0  0  0  0
    6.2289   -0.3048   24.9473 C   0  0  0  0  0  0
    5.7446   -0.0205   26.0498 O   0  0  0  0  0  0
    6.4294    0.7997   24.0165 C   0  0  0  0  0  0
    6.5528    2.1330   24.4087 C   0  0  0  0  0  0
    6.5662    2.9133   23.3050 O   0  0  0  0  0  0
    6.4182    2.0200   22.3006 C   0  0  0  0  0  0
    6.3321    0.7725   22.6919 N   0  0  0  0  0  0
    6.2241   -2.6250   25.5218 C   0  0  0  0  0  0
    4.8789   -2.9698   25.6973 C   0  0  0  0  0  0
    4.5294   -3.9805   26.5883 C   0  0  0  0  0  0
    5.5075   -4.6712   27.3196 C   0  0  0  0  0  0
    5.0856   -5.7902   28.3071 C   0  0  0  0  0  0
    3.9723   -5.2910   29.2614 C   0  0  0  0  0  0
    6.2515   -6.2884   29.2045 C   0  0  0  0  0  0
    4.5692   -6.9869   27.4839 C   0  0  0  0  0  0
    6.8533   -4.3410   27.1070 C   0  0  0  0  0  0
    7.2078   -3.3164   26.2390 C   0  0  0  0  0  0
    5.1739   -0.8811   19.5214 H   0  0  0  0  0  0
    6.3698   -2.0469   18.9907 H   0  0  0  0  0  0
    4.7696   -2.5898   19.4953 H   0  0  0  0  0  0
    6.0359   -6.4157   21.0683 H   0  0  0  0  0  0
    7.5053   -6.4674   23.1080 H   0  0  0  0  0  0
    7.5253   -1.1629   22.7357 H   0  0  0  0  0  0
    9.6419   -3.0762   22.4602 H   0  0  0  0  0  0
   11.5696   -1.8384   24.3277 H   0  0  0  0  0  0
   11.9036   -3.2694   23.4343 H   0  0  0  0  0  0
   13.1456   -1.4853   22.3888 H   0  0  0  0  0  0
   11.8580   -1.8209   21.2992 H   0  0  0  0  0  0
    9.6591   -0.3004   21.5491 H   0  0  0  0  0  0
    8.9952    2.0740   21.6155 H   0  0  0  0  0  0
   10.6026    3.7873   22.3583 H   0  0  0  0  0  0
   13.5504    0.7672   23.0482 H   0  0  0  0  0  0
    6.6106    2.6327   25.3646 H   0  0  0  0  0  0
    6.3750    2.4291   21.3006 H   0  0  0  0  0  0
    4.1081   -2.4528   25.1452 H   0  0  0  0  0  0
    3.4838   -4.2288   26.6985 H   0  0  0  0  0  0
    3.6959   -6.0557   29.9887 H   0  0  0  0  0  0
    3.0562   -5.0239   28.7345 H   0  0  0  0  0  0
    4.2951   -4.4123   29.8225 H   0  0  0  0  0  0
    7.0509   -6.7494   28.6267 H   0  0  0  0  0  0
    6.6849   -5.4763   29.7885 H   0  0  0  0  0  0
    5.9142   -7.0467   29.9129 H   0  0  0  0  0  0
    5.2993   -7.2522   26.7200 H   0  0  0  0  0  0
    4.3915   -7.8695   28.1023 H   0  0  0  0  0  0
    3.6353   -6.7581   26.9704 H   0  0  0  0  0  0
    7.6493   -4.8506   27.6264 H   0  0  0  0  0  0
    8.2539   -3.0736   26.1345 H   0  0  0  0  0  0
  1  2  1  0  0  0
  1 40  1  0  0  0
  1 41  1  0  0  0
  1 42  1  0  0  0
  2  3  1  0  0  0
  3  8  2  0  0  0
  3  4  1  0  0  0
  4  5  2  0  0  0
  5  6  1  0  0  0
  5 43  1  0  0  0
  6  7  2  0  0  0
  6 44  1  0  0  0
  7  8  1  0  0  0
  8  9  1  0  0  0
  9 10  1  0  0  0
  9 22  1  0  0  0
  9 45  1  0  0  0
 10 11  2  0  0  0
 10 12  1  0  0  0
 12 13  1  0  0  0
 12 46  1  0  0  0
 13 14  1  0  0  0
 13 47  1  0  0  0
 13 48  1  0  0  0
 14 15  1  0  0  0
 14 49  1  0  0  0
 14 50  1  0  0  0
 15 21  2  0  0  0
 15 16  1  0  0  0
 16 17  2  0  0  0
 16 51  1  0  0  0
 17 18  1  0  0  0
 17 52  1  0  0  0
 18 19  2  0  0  0
 18 53  1  0  0  0
 19 20  1  0  0  0
 19 21  1  0  0  0
 21 54  1  0  0  0
 22 23  1  0  0  0
 22 30  1  0  0  0
 23 24  2  0  0  0
 23 25  1  0  0  0
 25 29  1  0  0  0
 25 26  2  0  0  0
 26 27  1  0  0  0
 26 55  1  0  0  0
 27 28  1  0  0  0
 28 29  2  0  0  0
 28 56  1  0  0  0
 30 39  2  0  0  0
 30 31  1  0  0  0
 31 32  2  0  0  0
 31 57  1  0  0  0
 32 33  1  0  0  0
 32 58  1  0  0  0
 33 34  1  0  0  0
 33 38  2  0  0  0
 34 35  1  0  0  0
 34 36  1  0  0  0
 34 37  1  0  0  0
 35 59  1  0  0  0
 35 60  1  0  0  0
 35 61  1  0  0  0
 36 62  1  0  0  0
 36 63  1  0  0  0
 36 64  1  0  0  0
 37 65  1  0  0  0
 37 66  1  0  0  0
 37 67  1  0  0  0
 38 39  1  0  0  0
 38 68  1  0  0  0
 39 69  1  0  0  0
M  END
> <r_i_docking_score>
-4.66295802415414

$$$$
ligprep_5.maegz:11
                    3D
 Schrodinger Suite 2020-4.
 65 68  0  0  1  0            999 V2000
   10.0459    3.8828   24.4755 C   0  0  0  0  0  0
    8.5279    3.9212   24.1780 C   0  0  0  0  0  0
    7.8019    4.1720   25.5263 C   0  0  0  0  0  0
    8.2203    5.1209   23.2487 C   0  0  0  0  0  0
    8.0979    2.6047   23.4848 C   0  0  0  0  0  0
    8.7235    2.2295   22.2869 C   0  0  0  0  0  0
    8.3602    1.0611   21.6282 C   0  0  0  0  0  0
    7.3564    0.2486   22.1612 C   0  0  0  0  0  0
    6.9613   -0.9213   21.4767 N   0  0  0  0  0  0
    6.2274   -0.8396   20.3087 C   0  0  0  0  0  0
    5.9684   -1.8319   19.6263 O   0  0  0  0  0  0
    5.7522    0.4413   19.7983 C   0  0  0  0  0  0
    5.5692    0.7172   18.4446 C   0  0  0  0  0  0
    5.0310    1.9483   18.3278 O   0  0  0  0  0  0
    4.8792    2.3454   19.6125 C   0  0  0  0  0  0
    5.2826    1.4677   20.5001 N   0  0  0  0  0  0
    7.4883   -2.2686   21.9083 C   0  0  1  0  0  0
    8.6189   -2.3436   22.9875 C   0  0  0  0  0  0
    9.5253   -1.5112   23.0092 O   0  0  0  0  0  0
    8.5761   -3.3931   23.8266 N   0  0  0  0  0  0
    9.4971   -3.6689   24.9172 C   0  0  0  0  0  0
    8.9057   -3.2526   26.2831 C   0  0  0  0  0  0
    7.5318   -3.8430   26.5712 C   0  0  0  0  0  0
    7.4176   -5.1320   27.1014 C   0  0  0  0  0  0
    6.1579   -5.6748   27.3560 C   0  0  0  0  0  0
    5.0082   -4.9344   27.0783 C   0  0  0  0  0  0
    5.1177   -3.6489   26.5484 C   0  0  0  0  0  0
    4.0044   -2.9329   26.2736 F   0  0  0  0  0  0
    6.3763   -3.1033   26.2971 C   0  0  0  0  0  0
    6.4178   -3.3363   22.1013 C   0  0  0  0  0  0
    5.2375   -3.1047   22.8191 C   0  0  0  0  0  0
    4.3694   -4.1003   23.1355 N   0  0  0  0  0  0
    4.7008   -5.3457   22.7080 C   0  0  0  0  0  0
    5.7948   -5.6757   21.9768 N   0  0  0  0  0  0
    6.6406   -4.6567   21.6831 C   0  0  0  0  0  0
    6.7234    0.6020   23.3526 C   0  0  0  0  0  0
    7.0940    1.7725   24.0089 C   0  0  0  0  0  0
   10.3722    4.7798   25.0038 H   0  0  0  0  0  0
   10.6463    3.8210   23.5676 H   0  0  0  0  0  0
   10.3025    3.0216   25.0944 H   0  0  0  0  0  0
    6.7236    4.2663   25.3930 H   0  0  0  0  0  0
    7.9832    3.3666   26.2400 H   0  0  0  0  0  0
    8.1410    5.0949   25.9987 H   0  0  0  0  0  0
    7.1591    5.1700   23.0002 H   0  0  0  0  0  0
    8.4912    6.0705   23.7121 H   0  0  0  0  0  0
    8.7685    5.0631   22.3078 H   0  0  0  0  0  0
    9.4961    2.8482   21.8566 H   0  0  0  0  0  0
    8.8515    0.7831   20.7089 H   0  0  0  0  0  0
    5.7598    0.1731   17.5295 H   0  0  0  0  0  0
    4.4492    3.3266   19.7608 H   0  0  0  0  0  0
    8.0905   -2.5628   21.0523 H   0  0  0  0  0  0
    7.8142   -4.0475   23.7125 H   0  0  0  0  0  0
    9.5999   -4.7549   24.9083 H   0  0  0  0  0  0
   10.4848   -3.2476   24.7115 H   0  0  0  0  0  0
    9.5694   -3.5468   27.0935 H   0  0  0  0  0  0
    8.8529   -2.1643   26.3443 H   0  0  0  0  0  0
    8.3014   -5.7180   27.3140 H   0  0  0  0  0  0
    6.0746   -6.6733   27.7619 H   0  0  0  0  0  0
    4.0328   -5.3558   27.2708 H   0  0  0  0  0  0
    6.4502   -2.1100   25.8791 H   0  0  0  0  0  0
    4.9934   -2.1207   23.1921 H   0  0  0  0  0  0
    4.0209   -6.1492   22.9521 H   0  0  0  0  0  0
    7.5394   -4.9231   21.1443 H   0  0  0  0  0  0
    5.9388   -0.0165   23.7625 H   0  0  0  0  0  0
    6.5786    2.0163   24.9239 H   0  0  0  0  0  0
  1  2  1  0  0  0
  1 38  1  0  0  0
  1 39  1  0  0  0
  1 40  1  0  0  0
  2  3  1  0  0  0
  2  4  1  0  0  0
  2  5  1  0  0  0
  3 41  1  0  0  0
  3 42  1  0  0  0
  3 43  1  0  0  0
  4 44  1  0  0  0
  4 45  1  0  0  0
  4 46  1  0  0  0
  5 37  2  0  0  0
  5  6  1  0  0  0
  6  7  2  0  0  0
  6 47  1  0  0  0
  7  8  1  0  0  0
  7 48  1  0  0  0
  8  9  1  0  0  0
  8 36  2  0  0  0
  9 10  1  0  0  0
  9 17  1  0  0  0
 10 11  2  0  0  0
 10 12  1  0  0  0
 12 16  1  0  0  0
 12 13  2  0  0  0
 13 14  1  0  0  0
 13 49  1  0  0  0
 14 15  1  0  0  0
 15 16  2  0  0  0
 15 50  1  0  0  0
 17 18  1  0  0  0
 17 30  1  0  0  0
 17 51  1  0  0  0
 18 19  2  0  0  0
 18 20  1  0  0  0
 20 21  1  0  0  0
 20 52  1  0  0  0
 21 22  1  0  0  0
 21 53  1  0  0  0
 21 54  1  0  0  0
 22 23  1  0  0  0
 22 55  1  0  0  0
 22 56  1  0  0  0
 23 29  2  0  0  0
 23 24  1  0  0  0
 24 25  2  0  0  0
 24 57  1  0  0  0
 25 26  1  0  0  0
 25 58  1  0  0  0
 26 27  2  0  0  0
 26 59  1  0  0  0
 27 28  1  0  0  0
 27 29  1  0  0  0
 29 60  1  0  0  0
 30 35  2  0  0  0
 30 31  1  0  0  0
 31 32  2  0  0  0
 31 61  1  0  0  0
 32 33  1  0  0  0
 33 34  2  0  0  0
 33 62  1  0  0  0
 34 35  1  0  0  0
 35 63  1  0  0  0
 36 37  1  0  0  0
 36 64  1  0  0  0
 37 65  1  0  0  0
M  END
> <r_i_docking_score>
-3.32024145735044

$$$$
ligprep_5.maegz:12
                    3D
 Schrodinger Suite 2020-4.
 69 72  0  0  1  0            999 V2000
    3.5987   -3.0831   25.0946 C   0  0  0  0  0  0
    4.7333   -2.5054   24.4551 O   0  0  0  0  0  0
    5.5060   -1.5804   25.1327 C   0  0  0  0  0  0
    5.1742   -1.2623   26.4191 N   0  0  0  0  0  0
    5.9589   -0.3502   27.0417 C   0  0  0  0  0  0
    7.0377    0.2693   26.5089 N   0  0  0  0  0  0
    7.3429   -0.0659   25.2296 C   0  0  0  0  0  0
    6.6058   -1.0003   24.4794 C   0  0  0  0  0  0
    6.9427   -1.3749   23.0349 C   0  0  2  0  0  0
    8.4168   -1.8212   22.7741 C   0  0  0  0  0  0
    8.7682   -2.0458   21.6230 O   0  0  0  0  0  0
    9.2422   -1.9980   23.8179 N   0  0  0  0  0  0
   10.6209   -2.4926   23.7539 C   0  0  0  0  0  0
   11.5970   -1.9046   22.6976 C   0  0  0  0  0  0
   11.9755   -0.4215   22.8003 C   0  0  0  0  0  0
   13.2209   -0.0190   22.3082 C   0  0  0  0  0  0
   13.5908    1.3250   22.3112 C   0  0  0  0  0  0
   12.7285    2.2824   22.8393 C   0  0  0  0  0  0
   11.5004    1.8942   23.3685 C   0  0  0  0  0  0
   10.6740    2.8192   23.9095 F   0  0  0  0  0  0
   11.1253    0.5518   23.3433 C   0  0  0  0  0  0
    6.4907   -0.3486   22.0366 N   0  0  0  0  0  0
    6.0215   -0.7909   20.8146 C   0  0  0  0  0  0
    5.9277   -1.9883   20.5256 O   0  0  0  0  0  0
    5.6704    0.1730   19.7891 C   0  0  0  0  0  0
    4.8131    1.2661   19.9056 C   0  0  0  0  0  0
    4.7681    1.8967   18.7122 O   0  0  0  0  0  0
    5.5673    1.1332   17.9320 C   0  0  0  0  0  0
    6.0732    0.0830   18.5302 N   0  0  0  0  0  0
    6.5888    1.0358   22.3296 C   0  0  0  0  0  0
    5.6181    1.6645   23.1168 C   0  0  0  0  0  0
    5.6526    3.0424   23.3035 C   0  0  0  0  0  0
    6.6355    3.8251   22.6812 C   0  0  0  0  0  0
    6.6225    5.3673   22.8550 C   0  0  0  0  0  0
    7.6157    6.1051   21.9113 C   0  0  0  0  0  0
    7.0013    5.7127   24.3125 C   0  0  0  0  0  0
    5.2146    5.9356   22.5420 C   0  0  0  0  0  0
    7.6119    3.1757   21.9127 C   0  0  0  0  0  0
    7.6038    1.7950   21.7448 C   0  0  0  0  0  0
    3.1302   -3.8023   24.4251 H   0  0  0  0  0  0
    3.8733   -3.6162   26.0045 H   0  0  0  0  0  0
    2.8521   -2.3241   25.3418 H   0  0  0  0  0  0
    5.6947   -0.0860   28.0559 H   0  0  0  0  0  0
    8.1810    0.4569   24.7978 H   0  0  0  0  0  0
    6.4119   -2.3038   22.8339 H   0  0  0  0  0  0
    8.8723   -1.8126   24.7406 H   0  0  0  0  0  0
   11.0277   -2.1719   24.7059 H   0  0  0  0  0  0
   10.6649   -3.5827   23.7970 H   0  0  0  0  0  0
   12.5130   -2.4952   22.7627 H   0  0  0  0  0  0
   11.2404   -2.1115   21.6882 H   0  0  0  0  0  0
   13.8971   -0.7436   21.8804 H   0  0  0  0  0  0
   14.5477    1.6247   21.9090 H   0  0  0  0  0  0
   13.0162    3.3237   22.8518 H   0  0  0  0  0  0
   10.1602    0.3003   23.7433 H   0  0  0  0  0  0
    4.2312    1.6945   20.7087 H   0  0  0  0  0  0
    5.6689    1.4557   16.9071 H   0  0  0  0  0  0
    4.8177    1.0907   23.5606 H   0  0  0  0  0  0
    4.8903    3.4988   23.9172 H   0  0  0  0  0  0
    7.5532    7.1881   22.0270 H   0  0  0  0  0  0
    7.4137    5.8928   20.8602 H   0  0  0  0  0  0
    8.6539    5.8346   22.1128 H   0  0  0  0  0  0
    6.3029    5.2756   25.0271 H   0  0  0  0  0  0
    7.9963    5.3408   24.5628 H   0  0  0  0  0  0
    7.0024    6.7905   24.4823 H   0  0  0  0  0  0
    4.4525    5.5670   23.2263 H   0  0  0  0  0  0
    5.1962    7.0230   22.6157 H   0  0  0  0  0  0
    4.8989    5.6771   21.5297 H   0  0  0  0  0  0
    8.3695    3.7384   21.4055 H   0  0  0  0  0  0
    8.3522    1.3210   21.1263 H   0  0  0  0  0  0
  1  2  1  0  0  0
  1 40  1  0  0  0
  1 41  1  0  0  0
  1 42  1  0  0  0
  2  3  1  0  0  0
  3  8  2  0  0  0
  3  4  1  0  0  0
  4  5  2  0  0  0
  5  6  1  0  0  0
  5 43  1  0  0  0
  6  7  2  0  0  0
  7  8  1  0  0  0
  7 44  1  0  0  0
  8  9  1  0  0  0
  9 10  1  0  0  0
  9 22  1  0  0  0
  9 45  1  0  0  0
 10 11  2  0  0  0
 10 12  1  0  0  0
 12 13  1  0  0  0
 12 46  1  0  0  0
 13 14  1  0  0  0
 13 47  1  0  0  0
 13 48  1  0  0  0
 14 15  1  0  0  0
 14 49  1  0  0  0
 14 50  1  0  0  0
 15 21  2  0  0  0
 15 16  1  0  0  0
 16 17  2  0  0  0
 16 51  1  0  0  0
 17 18  1  0  0  0
 17 52  1  0  0  0
 18 19  2  0  0  0
 18 53  1  0  0  0
 19 20  1  0  0  0
 19 21  1  0  0  0
 21 54  1  0  0  0
 22 23  1  0  0  0
 22 30  1  0  0  0
 23 24  2  0  0  0
 23 25  1  0  0  0
 25 29  1  0  0  0
 25 26  2  0  0  0
 26 27  1  0  0  0
 26 55  1  0  0  0
 27 28  1  0  0  0
 28 29  2  0  0  0
 28 56  1  0  0  0
 30 39  2  0  0  0
 30 31  1  0  0  0
 31 32  2  0  0  0
 31 57  1  0  0  0
 32 33  1  0  0  0
 32 58  1  0  0  0
 33 34  1  0  0  0
 33 38  2  0  0  0
 34 35  1  0  0  0
 34 36  1  0  0  0
 34 37  1  0  0  0
 35 59  1  0  0  0
 35 60  1  0  0  0
 35 61  1  0  0  0
 36 62  1  0  0  0
 36 63  1  0  0  0
 36 64  1  0  0  0
 37 65  1  0  0  0
 37 66  1  0  0  0
 37 67  1  0  0  0
 38 39  1  0  0  0
 38 68  1  0  0  0
 39 69  1  0  0  0
M  END
> <r_i_docking_score>
-3.9381301181299

$$$$
ligprep_5.maegz:13
                    3D
 Schrodinger Suite 2020-4.
 65 68  0  0  1  0            999 V2000
    4.9067   -5.4905   23.1976 C   0  0  0  0  0  0
    6.2288   -4.9234   22.6186 C   0  0  0  0  0  0
    7.4011   -5.6539   23.3089 C   0  0  0  0  0  0
    6.2567   -5.2573   21.1114 C   0  0  0  0  0  0
    6.3885   -3.3950   22.8184 C   0  0  0  0  0  0
    7.5216   -2.7473   22.3075 C   0  0  0  0  0  0
    7.7007   -1.3759   22.4669 C   0  0  0  0  0  0
    6.7443   -0.6128   23.1425 C   0  0  0  0  0  0
    6.9017    0.8020   23.2933 N   0  0  0  0  0  0
    6.9113    1.2793   24.5902 C   0  0  0  0  0  0
    7.0299    0.5504   25.5817 O   0  0  0  0  0  0
    6.7945    2.7057   24.8324 C   0  0  0  0  0  0
    7.3430    3.3631   25.9310 C   0  0  0  0  0  0
    6.9672    4.6610   25.8871 O   0  0  0  0  0  0
    6.1718    4.7111   24.7910 C   0  0  0  0  0  0
    6.0160    3.5620   24.1797 N   0  0  0  0  0  0
    7.3405    1.6681   22.1310 C   0  0  1  0  0  0
    8.8873    1.8998   22.0738 C   0  0  0  0  0  0
    9.5576    1.5472   21.1080 O   0  0  0  0  0  0
    9.4427    2.5124   23.1303 N   0  0  0  0  0  0
   10.8727    2.7818   23.2893 C   0  0  0  0  0  0
   11.5761    1.7017   24.1293 C   0  0  0  0  0  0
   11.6082    0.3155   23.5227 C   0  0  0  0  0  0
   12.5244    0.0258   22.5070 C   0  0  0  0  0  0
   12.5975   -1.2593   21.9770 C   0  0  0  0  0  0
   11.7597   -2.2574   22.4709 C   0  0  0  0  0  0
   10.8525   -1.9781   23.4914 C   0  0  0  0  0  0
   10.0595   -2.9571   23.9798 F   0  0  0  0  0  0
   10.7698   -0.6897   24.0127 C   0  0  0  0  0  0
    6.6821    1.2371   20.8167 C   0  0  0  0  0  0
    5.4862    1.8361   20.3947 C   0  0  0  0  0  0
    4.9260    1.5472   19.1907 N   0  0  0  0  0  0
    5.5696    0.6457   18.4070 C   0  0  0  0  0  0
    6.7449    0.0223   18.8233 C   0  0  0  0  0  0
    7.3068    0.3167   20.0220 N   0  0  0  0  0  0
    5.6135   -1.2603   23.6686 C   0  0  0  0  0  0
    5.4380   -2.6311   23.5072 C   0  0  0  0  0  0
    4.8343   -6.5681   23.0455 H   0  0  0  0  0  0
    4.0318   -5.0459   22.7217 H   0  0  0  0  0  0
    4.8290   -5.3245   24.2726 H   0  0  0  0  0  0
    8.3696   -5.3065   22.9523 H   0  0  0  0  0  0
    7.3795   -5.5182   24.3919 H   0  0  0  0  0  0
    7.3676   -6.7246   23.1074 H   0  0  0  0  0  0
    7.2576   -5.1313   20.7085 H   0  0  0  0  0  0
    5.9710   -6.2916   20.9217 H   0  0  0  0  0  0
    5.5788   -4.6213   20.5403 H   0  0  0  0  0  0
    8.2835   -3.3040   21.7790 H   0  0  0  0  0  0
    8.5878   -0.9192   22.0596 H   0  0  0  0  0  0
    7.9731    3.0515   26.7515 H   0  0  0  0  0  0
    5.7246    5.6687   24.5685 H   0  0  0  0  0  0
    6.9626    2.6762   22.2503 H   0  0  0  0  0  0
    8.8361    2.8192   23.8779 H   0  0  0  0  0  0
   11.3396    2.8254   22.3030 H   0  0  0  0  0  0
   11.0179    3.7686   23.7316 H   0  0  0  0  0  0
   12.6194    1.9498   24.3068 H   0  0  0  0  0  0
   11.0999    1.6620   25.1078 H   0  0  0  0  0  0
   13.1807    0.7963   22.1244 H   0  0  0  0  0  0
   13.2994   -1.4853   21.1855 H   0  0  0  0  0  0
   11.8148   -3.2518   22.0627 H   0  0  0  0  0  0
   10.0608   -0.4837   24.8016 H   0  0  0  0  0  0
    4.9787    2.5790   20.9922 H   0  0  0  0  0  0
    5.1220    0.4204   17.4508 H   0  0  0  0  0  0
    7.2539   -0.7035   18.2068 H   0  0  0  0  0  0
    4.8613   -0.6948   24.1990 H   0  0  0  0  0  0
    4.5498   -3.0737   23.9275 H   0  0  0  0  0  0
  1  2  1  0  0  0
  1 38  1  0  0  0
  1 39  1  0  0  0
  1 40  1  0  0  0
  2  3  1  0  0  0
  2  4  1  0  0  0
  2  5  1  0  0  0
  3 41  1  0  0  0
  3 42  1  0  0  0
  3 43  1  0  0  0
  4 44  1  0  0  0
  4 45  1  0  0  0
  4 46  1  0  0  0
  5 37  2  0  0  0
  5  6  1  0  0  0
  6  7  2  0  0  0
  6 47  1  0  0  0
  7  8  1  0  0  0
  7 48  1  0  0  0
  8  9  1  0  0  0
  8 36  2  0  0  0
  9 10  1  0  0  0
  9 17  1  0  0  0
 10 11  2  0  0  0
 10 12  1  0  0  0
 12 16  1  0  0  0
 12 13  2  0  0  0
 13 14  1  0  0  0
 13 49  1  0  0  0
 14 15  1  0  0  0
 15 16  2  0  0  0
 15 50  1  0  0  0
 17 18  1  0  0  0
 17 30  1  0  0  0
 17 51  1  0  0  0
 18 19  2  0  0  0
 18 20  1  0  0  0
 20 21  1  0  0  0
 20 52  1  0  0  0
 21 22  1  0  0  0
 21 53  1  0  0  0
 21 54  1  0  0  0
 22 23  1  0  0  0
 22 55  1  0  0  0
 22 56  1  0  0  0
 23 29  2  0  0  0
 23 24  1  0  0  0
 24 25  2  0  0  0
 24 57  1  0  0  0
 25 26  1  0  0  0
 25 58  1  0  0  0
 26 27  2  0  0  0
 26 59  1  0  0  0
 27 28  1  0  0  0
 27 29  1  0  0  0
 29 60  1  0  0  0
 30 35  2  0  0  0
 30 31  1  0  0  0
 31 32  2  0  0  0
 31 61  1  0  0  0
 32 33  1  0  0  0
 33 34  2  0  0  0
 33 62  1  0  0  0
 34 35  1  0  0  0
 34 63  1  0  0  0
 36 37  1  0  0  0
 36 64  1  0  0  0
 37 65  1  0  0  0
M  END
> <r_i_docking_score>
-6.31272422409907

$$$$
ligprep_5.maegz:14
                    3D
 Schrodinger Suite 2020-4.
 39 42  0  0  1  0            999 V2000
    9.3925    1.9470   21.4112 O   0  0  0  0  0  0
    9.0370    1.8232   22.5855 C   0  0  0  0  0  0
    7.7477    1.7833   22.9844 N   0  0  0  0  0  0
    6.6175    1.9841   22.1742 C   0  0  0  0  0  0
    5.6608    2.8768   22.6684 C   0  0  0  0  0  0
    4.5575    3.2622   21.9896 N   0  0  0  0  0  0
    4.3795    2.7469   20.7547 C   0  0  0  0  0  0
    5.2381    1.8041   20.1499 C   0  0  0  0  0  0
    4.9998    1.2899   18.8573 C   0  0  0  0  0  0
    5.8624    0.3477   18.3077 C   0  0  0  0  0  0
    6.9460   -0.1222   19.0348 C   0  0  0  0  0  0
    7.2006    0.3575   20.3137 C   0  0  0  0  0  0
    6.3819    1.3722   20.8918 C   0  0  0  0  0  0
   10.0961    1.7691   23.7119 C   0  0  2  0  0  0
   10.4177    3.1838   24.2372 C   0  0  0  0  0  0
   11.1168    4.0807   23.2071 C   0  0  0  0  0  0
   12.7326    3.4307   22.7083 S   0  0  0  0  0  0
   12.5012    1.6662   22.7419 C   0  0  0  0  0  0
   13.5829    0.9019   22.3081 C   0  0  0  0  0  0
   13.5266   -0.4855   22.2979 C   0  0  0  0  0  0
   12.3691   -1.1277   22.7079 C   0  0  0  0  0  0
   12.2943   -2.8447   22.7078 Cl  0  0  0  0  0  0
   11.2932   -0.3833   23.1742 C   0  0  0  0  0  0
   11.3418    1.0164   23.2356 C   0  0  0  0  0  0
    7.5772    1.8158   23.9776 H   0  0  0  0  0  0
    5.7904    3.3537   23.6288 H   0  0  0  0  0  0
    3.5179    3.1077   20.2118 H   0  0  0  0  0  0
    4.1404    1.6382   18.3078 H   0  0  0  0  0  0
    5.6806   -0.0340   17.3144 H   0  0  0  0  0  0
    7.6026   -0.8596   18.5959 H   0  0  0  0  0  0
    8.0381   -0.0450   20.8598 H   0  0  0  0  0  0
    9.6291    1.2135   24.5281 H   0  0  0  0  0  0
   11.0706    3.0742   25.1021 H   0  0  0  0  0  0
    9.5131    3.6798   24.5963 H   0  0  0  0  0  0
   11.2726    5.0859   23.5976 H   0  0  0  0  0  0
   10.5153    4.1888   22.3080 H   0  0  0  0  0  0
   14.4786    1.3939   21.9553 H   0  0  0  0  0  0
   14.3670   -1.0674   21.9566 H   0  0  0  0  0  0
   10.4049   -0.9049   23.4986 H   0  0  0  0  0  0
  1  2  2  0  0  0
  2  3  1  0  0  0
  2 14  1  0  0  0
  3  4  1  0  0  0
  3 25  1  0  0  0
  4 13  2  0  0  0
  4  5  1  0  0  0
  5  6  2  0  0  0
  5 26  1  0  0  0
  6  7  1  0  0  0
  7  8  2  0  0  0
  7 27  1  0  0  0
  8 13  1  0  0  0
  8  9  1  0  0  0
  9 10  2  0  0  0
  9 28  1  0  0  0
 10 11  1  0  0  0
 10 29  1  0  0  0
 11 12  2  0  0  0
 11 30  1  0  0  0
 12 13  1  0  0  0
 12 31  1  0  0  0
 14 24  1  0  0  0
 14 15  1  0  0  0
 14 32  1  0  0  0
 15 16  1  0  0  0
 15 33  1  0  0  0
 15 34  1  0  0  0
 16 17  1  0  0  0
 16 35  1  0  0  0
 16 36  1  0  0  0
 17 18  1  0  0  0
 18 24  2  0  0  0
 18 19  1  0  0  0
 19 20  2  0  0  0
 19 37  1  0  0  0
 20 21  1  0  0  0
 20 38  1  0  0  0
 21 22  1  0  0  0
 21 23  2  0  0  0
 23 24  1  0  0  0
 23 39  1  0  0  0
M  END
> <r_i_docking_score>
-6.70462730060267

$$$$
ligprep_5.maegz:15
                    3D
 Schrodinger Suite 2020-4.
 49 52  0  0  1  0            999 V2000
    2.7785    4.5298   21.6456 C   0  0  0  0  0  0
    4.1204    4.0071   21.8640 N   0  0  0  0  0  0
    4.4596    3.1429   22.8430 C   0  0  0  0  0  0
    3.6186    2.7486   23.6572 O   0  0  0  0  0  0
    5.9569    2.6475   22.9274 C   0  0  1  0  0  0
    6.8877    3.8995   22.6750 C   0  0  0  0  0  0
    8.3974    3.7865   22.9740 C   0  0  0  0  0  0
    8.9504    4.7408   23.5219 O   0  0  0  0  0  0
    9.0300    2.6423   22.6257 N   0  0  0  0  0  0
   10.4152    2.3456   22.7084 C   0  0  0  0  0  0
   11.4063    3.3450   22.7093 C   0  0  0  0  0  0
   12.7374    3.1061   22.7079 N   0  0  0  0  0  0
   13.1364    1.8186   22.7082 C   0  0  0  0  0  0
   12.2631    0.7121   22.7037 C   0  0  0  0  0  0
   12.7374   -0.6205   22.6532 C   0  0  0  0  0  0
   11.8358   -1.6792   22.6112 C   0  0  0  0  0  0
   10.4671   -1.4404   22.6288 C   0  0  0  0  0  0
    9.9744   -0.1390   22.6793 C   0  0  0  0  0  0
   10.8564    0.9775   22.7065 C   0  0  0  0  0  0
    6.2058    2.0424   24.3615 C   0  0  0  0  0  0
    5.7885    0.5649   24.4746 C   0  0  0  0  0  0
    6.5223   -0.2025   23.5266 O   0  0  0  0  0  0
    6.3707    0.2056   22.2170 C   0  0  0  0  0  0
    6.5257   -0.8049   21.2667 C   0  0  0  0  0  0
    6.4029   -0.5137   19.9118 C   0  0  0  0  0  0
    6.1316    0.7892   19.5090 C   0  0  0  0  0  0
    5.9627    1.1456   17.8292 Cl  0  0  0  0  0  0
    5.9970    1.8006   20.4621 C   0  0  0  0  0  0
    6.1214    1.5458   21.8419 C   0  0  0  0  0  0
    2.7192    4.9853   20.6567 H   0  0  0  0  0  0
    2.0293    3.7382   21.6995 H   0  0  0  0  0  0
    2.5436    5.2922   22.3890 H   0  0  0  0  0  0
    4.8159    4.3365   21.2067 H   0  0  0  0  0  0
    6.8111    4.2486   21.6453 H   0  0  0  0  0  0
    6.5251    4.7314   23.2828 H   0  0  0  0  0  0
    8.4430    1.8946   22.2869 H   0  0  0  0  0  0
   11.1501    4.3921   22.6552 H   0  0  0  0  0  0
   14.2050    1.6579   22.6886 H   0  0  0  0  0  0
   13.8019   -0.8101   22.6354 H   0  0  0  0  0  0
   12.2001   -2.6954   22.5612 H   0  0  0  0  0  0
    9.7806   -2.2730   22.5960 H   0  0  0  0  0  0
    8.9092    0.0188   22.6868 H   0  0  0  0  0  0
    5.7167    2.6330   25.1382 H   0  0  0  0  0  0
    7.2597    2.0715   24.6309 H   0  0  0  0  0  0
    4.7161    0.4501   24.3097 H   0  0  0  0  0  0
    6.0008    0.1852   25.4737 H   0  0  0  0  0  0
    6.7327   -1.8161   21.5843 H   0  0  0  0  0  0
    6.5172   -1.2963   19.1754 H   0  0  0  0  0  0
    5.7788    2.7988   20.1114 H   0  0  0  0  0  0
  1  2  1  0  0  0
  1 30  1  0  0  0
  1 31  1  0  0  0
  1 32  1  0  0  0
  2  3  1  0  0  0
  2 33  1  0  0  0
  3  4  2  0  0  0
  3  5  1  0  0  0
  5 29  1  0  0  0
  5  6  1  0  0  0
  5 20  1  0  0  0
  6  7  1  0  0  0
  6 34  1  0  0  0
  6 35  1  0  0  0
  7  8  2  0  0  0
  7  9  1  0  0  0
  9 10  1  0  0  0
  9 36  1  0  0  0
 10 19  2  0  0  0
 10 11  1  0  0  0
 11 12  2  0  0  0
 11 37  1  0  0  0
 12 13  1  0  0  0
 13 14  2  0  0  0
 13 38  1  0  0  0
 14 19  1  0  0  0
 14 15  1  0  0  0
 15 16  2  0  0  0
 15 39  1  0  0  0
 16 17  1  0  0  0
 16 40  1  0  0  0
 17 18  2  0  0  0
 17 41  1  0  0  0
 18 19  1  0  0  0
 18 42  1  0  0  0
 20 21  1  0  0  0
 20 43  1  0  0  0
 20 44  1  0  0  0
 21 22  1  0  0  0
 21 45  1  0  0  0
 21 46  1  0  0  0
 22 23  1  0  0  0
 23 29  2  0  0  0
 23 24  1  0  0  0
 24 25  2  0  0  0
 24 47  1  0  0  0
 25 26  1  0  0  0
 25 48  1  0  0  0
 26 27  1  0  0  0
 26 28  2  0  0  0
 28 29  1  0  0  0
 28 49  1  0  0  0
M  END
> <r_i_docking_score>
-5.49542094478969

$$$$
ligprep_5.maegz:16
                    3D
 Schrodinger Suite 2020-4.
 42 43  0  0  1  0            999 V2000
    7.3590   -6.3059   22.2128 C   0  0  0  0  0  0
    5.9664   -6.0282   22.0598 O   0  0  0  0  0  0
    5.4832   -4.8879   22.7213 C   0  0  0  0  0  0
    4.0884   -4.8338   22.7081 O   0  0  0  0  0  0
    3.4296   -5.9012   23.3778 C   0  0  0  0  0  0
    5.9870   -3.6101   21.9601 C   0  0  0  0  0  0
    5.5696   -3.4524   20.8079 O   0  0  0  0  0  0
    6.8689   -2.7510   22.5482 N   0  0  0  0  0  0
    7.3828   -2.8615   23.9315 C   0  0  0  0  0  0
    8.9203   -2.9645   23.8705 C   0  0  0  0  0  0
    9.4853   -1.8082   23.1764 N   0  0  0  0  0  0
   10.9518   -1.8446   23.2129 C   0  0  0  0  0  0
   11.6066   -0.4873   22.9582 C   0  0  0  0  0  0
   12.9024   -0.4433   22.4325 C   0  0  0  0  0  0
   13.5699    0.7755   22.3078 C   0  0  0  0  0  0
   12.9521    1.9600   22.7078 C   0  0  0  0  0  0
   11.6734    1.9228   23.2610 C   0  0  0  0  0  0
   10.9210    3.3810   23.7948 Cl  0  0  0  0  0  0
   11.0103    0.7039   23.3979 C   0  0  0  0  0  0
    8.9887   -1.7371   21.7966 C   0  0  0  0  0  0
    7.4419   -1.6427   21.7503 C   0  0  0  0  0  0
    7.5669   -7.3307   21.9084 H   0  0  0  0  0  0
    7.6889   -6.2021   23.2467 H   0  0  0  0  0  0
    7.9646   -5.6468   21.5889 H   0  0  0  0  0  0
    5.7686   -4.9496   23.7647 H   0  0  0  0  0  0
    2.3531   -5.7365   23.3447 H   0  0  0  0  0  0
    3.6337   -6.8553   22.8922 H   0  0  0  0  0  0
    3.7261   -5.9667   24.4249 H   0  0  0  0  0  0
    7.1050   -1.9652   24.4872 H   0  0  0  0  0  0
    7.0149   -3.6977   24.5119 H   0  0  0  0  0  0
    9.1983   -3.8771   23.3437 H   0  0  0  0  0  0
    9.3223   -3.0302   24.8829 H   0  0  0  0  0  0
   11.2783   -2.1385   24.2120 H   0  0  0  0  0  0
   11.3503   -2.6046   22.5369 H   0  0  0  0  0  0
   13.3978   -1.3544   22.1287 H   0  0  0  0  0  0
   14.5672    0.8077   21.8983 H   0  0  0  0  0  0
   13.4750    2.8993   22.6077 H   0  0  0  0  0  0
   10.0295    0.6830   23.8528 H   0  0  0  0  0  0
    9.3083   -2.6410   21.2734 H   0  0  0  0  0  0
    9.4271   -0.8846   21.2744 H   0  0  0  0  0  0
    7.1219   -1.6488   20.7071 H   0  0  0  0  0  0
    7.1248   -0.6915   22.1775 H   0  0  0  0  0  0
  1  2  1  0  0  0
  1 22  1  0  0  0
  1 23  1  0  0  0
  1 24  1  0  0  0
  2  3  1  0  0  0
  3  4  1  0  0  0
  3  6  1  0  0  0
  3 25  1  0  0  0
  4  5  1  0  0  0
  5 26  1  0  0  0
  5 27  1  0  0  0
  5 28  1  0  0  0
  6  7  2  0  0  0
  6  8  1  0  0  0
  8 21  1  0  0  0
  8  9  1  0  0  0
  9 10  1  0  0  0
  9 29  1  0  0  0
  9 30  1  0  0  0
 10 11  1  0  0  0
 10 31  1  0  0  0
 10 32  1  0  0  0
 11 12  1  0  0  0
 11 20  1  0  0  0
 12 13  1  0  0  0
 12 33  1  0  0  0
 12 34  1  0  0  0
 13 19  2  0  0  0
 13 14  1  0  0  0
 14 15  2  0  0  0
 14 35  1  0  0  0
 15 16  1  0  0  0
 15 36  1  0  0  0
 16 17  2  0  0  0
 16 37  1  0  0  0
 17 18  1  0  0  0
 17 19  1  0  0  0
 19 38  1  0  0  0
 20 21  1  0  0  0
 20 39  1  0  0  0
 20 40  1  0  0  0
 21 41  1  0  0  0
 21 42  1  0  0  0
M  END
> <r_i_docking_score>
-6.75737953139007

$$$$
ligprep_5.maegz:17
                    3D
 Schrodinger Suite 2020-4.
 33 34  0  0  1  0            999 V2000
    6.4902   -5.6771   21.4320 O   0  0  0  0  0  0
    7.0870   -4.7120   21.9084 C   0  0  0  0  0  0
    6.4003   -3.2903   21.9121 C   0  0  0  0  0  0
    5.1699   -3.2422   21.9585 O   0  0  0  0  0  0
    7.2312   -2.2058   21.9018 N   0  0  0  0  0  0
    6.6424   -0.8577   22.0467 C   0  0  0  0  0  0
    7.5032   -0.0461   23.0464 C   0  0  0  0  0  0
    8.9231    0.0006   22.6695 N   0  0  0  0  0  0
    9.6695    0.7907   23.6645 C   0  0  0  0  0  0
   11.0505    1.2533   23.1956 C   0  0  0  0  0  0
   12.1312    0.3640   23.1684 C   0  0  0  0  0  0
   13.3793    0.7773   22.7081 C   0  0  0  0  0  0
   13.5694    2.0987   22.3080 C   0  0  0  0  0  0
   12.5092    3.0029   22.3533 C   0  0  0  0  0  0
   12.7703    4.6501   21.9090 Cl  0  0  0  0  0  0
   11.2459    2.5737   22.7688 C   0  0  0  0  0  0
    9.4584   -1.3634   22.5473 C   0  0  0  0  0  0
    8.6688   -2.2273   21.5466 C   0  0  0  0  0  0
    8.0828   -4.7771   22.3434 H   0  0  0  0  0  0
    6.6515   -0.3498   21.0811 H   0  0  0  0  0  0
    5.6097   -0.8775   22.4010 H   0  0  0  0  0  0
    7.4240   -0.5029   24.0367 H   0  0  0  0  0  0
    7.1031    0.9674   23.1172 H   0  0  0  0  0  0
    9.0948    1.6917   23.8885 H   0  0  0  0  0  0
    9.7623    0.2466   24.6066 H   0  0  0  0  0  0
   12.0107   -0.6531   23.5089 H   0  0  0  0  0  0
   14.2026    0.0796   22.6802 H   0  0  0  0  0  0
   14.5436    2.4233   21.9726 H   0  0  0  0  0  0
   10.4244    3.2759   22.7771 H   0  0  0  0  0  0
    9.4436   -1.8375   23.5316 H   0  0  0  0  0  0
   10.4858   -1.3352   22.1902 H   0  0  0  0  0  0
    9.1168   -3.2175   21.5039 H   0  0  0  0  0  0
    8.7899   -1.7744   20.5621 H   0  0  0  0  0  0
  1  2  2  0  0  0
  2  3  1  0  0  0
  2 19  1  0  0  0
  3  4  2  0  0  0
  3  5  1  0  0  0
  5 18  1  0  0  0
  5  6  1  0  0  0
  6  7  1  0  0  0
  6 20  1  0  0  0
  6 21  1  0  0  0
  7  8  1  0  0  0
  7 22  1  0  0  0
  7 23  1  0  0  0
  8  9  1  0  0  0
  8 17  1  0  0  0
  9 10  1  0  0  0
  9 24  1  0  0  0
  9 25  1  0  0  0
 10 16  2  0  0  0
 10 11  1  0  0  0
 11 12  2  0  0  0
 11 26  1  0  0  0
 12 13  1  0  0  0
 12 27  1  0  0  0
 13 14  2  0  0  0
 13 28  1  0  0  0
 14 15  1  0  0  0
 14 16  1  0  0  0
 16 29  1  0  0  0
 17 18  1  0  0  0
 17 30  1  0  0  0
 17 31  1  0  0  0
 18 32  1  0  0  0
 18 33  1  0  0  0
M  END
> <r_i_docking_score>
-6.2006391188566

$$$$
ligprep_5.maegz:18
                    3D
 Schrodinger Suite 2020-4.
 48 51  0  0  1  0            999 V2000
    6.0061   -6.0900   21.5393 C   0  0  0  0  0  0
    5.2650   -5.0403   22.1601 O   0  0  0  0  0  0
    5.9513   -3.9586   22.6717 C   0  0  0  0  0  0
    5.2369   -2.9618   23.3346 C   0  0  0  0  0  0
    5.9664   -1.8830   23.8344 C   0  0  0  0  0  0
    5.1554   -0.6349   24.7068 Cl  0  0  0  0  0  0
    7.3067   -1.7923   23.6735 N   0  0  0  0  0  0
    7.9301   -2.8050   23.0233 C   0  0  0  0  0  0
    9.3131   -2.7670   22.8099 N   0  0  0  0  0  0
   10.2819   -1.7629   22.9723 C   0  0  0  0  0  0
   11.5013   -1.9180   22.3080 C   0  0  0  0  0  0
   12.4595   -0.9081   22.3411 C   0  0  0  0  0  0
   13.9684   -1.1445   21.5419 Cl  0  0  0  0  0  0
   12.1949    0.2868   23.0199 C   0  0  0  0  0  0
   10.9889    0.4465   23.7093 C   0  0  0  0  0  0
   10.6366    1.7638   24.4109 C   0  0  0  0  0  0
    9.4309    2.5334   23.8270 C   0  0  0  0  0  0
    9.2169    3.6668   24.2549 O   0  0  0  0  0  0
    8.6665    1.9066   22.9002 N   0  0  0  0  0  0
    7.4364    2.2884   22.3188 C   0  0  0  0  0  0
    6.6196    3.2978   22.8554 C   0  0  0  0  0  0
    5.4239    3.6660   22.3403 N   0  0  0  0  0  0
    4.9965    3.0198   21.2357 C   0  0  0  0  0  0
    5.7033    1.9826   20.5892 C   0  0  0  0  0  0
    5.2210    1.3526   19.4166 C   0  0  0  0  0  0
    5.9633    0.3459   18.8103 C   0  0  0  0  0  0
    7.1730   -0.0641   19.3585 C   0  0  0  0  0  0
    7.6719    0.5360   20.5135 C   0  0  0  0  0  0
    6.9597    1.5902   21.1554 C   0  0  0  0  0  0
   10.0687   -0.6046   23.7277 C   0  0  0  0  0  0
    7.3049   -3.8909   22.5185 N   0  0  0  0  0  0
    5.3291   -6.8509   21.1677 H   0  0  0  0  0  0
    6.5872   -5.7203   20.6922 H   0  0  0  0  0  0
    6.6857   -6.5703   22.2472 H   0  0  0  0  0  0
    4.1705   -3.0312   23.4653 H   0  0  0  0  0  0
    9.6341   -3.5655   22.2770 H   0  0  0  0  0  0
   11.6974   -2.8166   21.7380 H   0  0  0  0  0  0
   12.9294    1.0817   23.0104 H   0  0  0  0  0  0
   11.5010    2.4287   24.4128 H   0  0  0  0  0  0
   10.3832    1.5521   25.4516 H   0  0  0  0  0  0
    9.0099    1.0080   22.5979 H   0  0  0  0  0  0
    6.8932    3.8416   23.7464 H   0  0  0  0  0  0
    4.0573    3.3611   20.8216 H   0  0  0  0  0  0
    4.2781    1.6717   18.9906 H   0  0  0  0  0  0
    5.5954   -0.1235   17.9109 H   0  0  0  0  0  0
    7.7327   -0.8526   18.8757 H   0  0  0  0  0  0
    8.6160    0.1967   20.9122 H   0  0  0  0  0  0
    9.1690   -0.4687   24.3062 H   0  0  0  0  0  0
  1  2  1  0  0  0
  1 32  1  0  0  0
  1 33  1  0  0  0
  1 34  1  0  0  0
  2  3  1  0  0  0
  3 31  2  0  0  0
  3  4  1  0  0  0
  4  5  2  0  0  0
  4 35  1  0  0  0
  5  6  1  0  0  0
  5  7  1  0  0  0
  7  8  2  0  0  0
  8  9  1  0  0  0
  8 31  1  0  0  0
  9 10  1  0  0  0
  9 36  1  0  0  0
 10 30  2  0  0  0
 10 11  1  0  0  0
 11 12  2  0  0  0
 11 37  1  0  0  0
 12 13  1  0  0  0
 12 14  1  0  0  0
 14 15  2  0  0  0
 14 38  1  0  0  0
 15 16  1  0  0  0
 15 30  1  0  0  0
 16 17  1  0  0  0
 16 39  1  0  0  0
 16 40  1  0  0  0
 17 18  2  0  0  0
 17 19  1  0  0  0
 19 20  1  0  0  0
 19 41  1  0  0  0
 20 29  2  0  0  0
 20 21  1  0  0  0
 21 22  2  0  0  0
 21 42  1  0  0  0
 22 23  1  0  0  0
 23 24  2  0  0  0
 23 43  1  0  0  0
 24 29  1  0  0  0
 24 25  1  0  0  0
 25 26  2  0  0  0
 25 44  1  0  0  0
 26 27  1  0  0  0
 26 45  1  0  0  0
 27 28  2  0  0  0
 27 46  1  0  0  0
 28 29  1  0  0  0
 28 47  1  0  0  0
 30 48  1  0  0  0
M  END
> <r_i_docking_score>
-6.71470313933171

$$$$
ligprep_5.maegz:19
                    3D
 Schrodinger Suite 2020-4.
 48 51  0  0  1  0            999 V2000
    8.1471    3.5856   23.4549 O   0  0  0  0  0  0
    7.9250    2.5315   22.8581 C   0  0  0  0  0  0
    6.4612    2.1524   22.5687 C   0  0  0  0  0  0
    6.2680    1.1222   21.4556 C   0  0  0  0  0  0
    6.0352    1.5471   20.1465 C   0  0  0  0  0  0
    5.8774    0.6149   19.1219 C   0  0  0  0  0  0
    5.5715    1.1459   17.5086 Cl  0  0  0  0  0  0
    5.9308   -0.7486   19.4107 C   0  0  0  0  0  0
    6.0952   -1.1902   20.7234 C   0  0  0  0  0  0
    6.0254   -2.5720   20.9547 N   0  0  0  0  0  0
    5.6651   -3.3627   22.0503 C   0  0  0  0  0  0
    5.0754   -2.8519   23.2112 C   0  0  0  0  0  0
    4.7082   -3.7341   24.2256 C   0  0  0  0  0  0
    4.9218   -5.1071   24.0645 C   0  0  0  0  0  0
    4.5047   -6.0908   25.1519 C   0  0  0  0  0  0
    5.4360   -6.0981   26.1051 F   0  0  0  0  0  0
    3.3394   -5.7258   25.6902 F   0  0  0  0  0  0
    4.3685   -7.3266   24.6693 F   0  0  0  0  0  0
    5.5019   -5.5410   22.8657 C   0  0  0  0  0  0
    5.8673   -4.6909   21.8736 N   0  0  0  0  0  0
    6.3294   -0.2494   21.7341 C   0  0  0  0  0  0
    8.8801    1.6566   22.4749 N   0  0  0  0  0  0
   10.2800    1.7527   22.6068 C   0  0  0  0  0  0
   10.9569    2.9780   22.7219 C   0  0  0  0  0  0
   12.3034    3.1007   22.7782 N   0  0  0  0  0  0
   13.0299    1.9674   22.7062 C   0  0  0  0  0  0
   12.4867    0.6725   22.5726 C   0  0  0  0  0  0
   13.2944   -0.4789   22.4381 C   0  0  0  0  0  0
   12.7064   -1.7325   22.3025 C   0  0  0  0  0  0
   11.3243   -1.8688   22.3079 C   0  0  0  0  0  0
   10.5026   -0.7508   22.4087 C   0  0  0  0  0  0
   11.0625    0.5544   22.5364 C   0  0  0  0  0  0
    6.0160    1.7833   23.4934 H   0  0  0  0  0  0
    5.9222    3.0642   22.3073 H   0  0  0  0  0  0
    5.9695    2.6016   19.9184 H   0  0  0  0  0  0
    5.7828   -1.4576   18.6096 H   0  0  0  0  0  0
    6.3386   -3.1247   20.1708 H   0  0  0  0  0  0
    4.8630   -1.8012   23.3234 H   0  0  0  0  0  0
    4.2494   -3.3514   25.1256 H   0  0  0  0  0  0
    5.6814   -6.5916   22.6799 H   0  0  0  0  0  0
    6.5237   -0.5738   22.7447 H   0  0  0  0  0  0
    8.5433    0.7998   22.0639 H   0  0  0  0  0  0
   10.4250    3.9174   22.7258 H   0  0  0  0  0  0
   14.1020    2.0971   22.7079 H   0  0  0  0  0  0
   14.3696   -0.3784   22.4479 H   0  0  0  0  0  0
   13.3264   -2.6152   22.2055 H   0  0  0  0  0  0
   10.8842   -2.8522   22.2022 H   0  0  0  0  0  0
    9.4316   -0.8858   22.3830 H   0  0  0  0  0  0
  1  2  2  0  0  0
  2  3  1  0  0  0
  2 22  1  0  0  0
  3  4  1  0  0  0
  3 33  1  0  0  0
  3 34  1  0  0  0
  4 21  2  0  0  0
  4  5  1  0  0  0
  5  6  2  0  0  0
  5 35  1  0  0  0
  6  7  1  0  0  0
  6  8  1  0  0  0
  8  9  2  0  0  0
  8 36  1  0  0  0
  9 10  1  0  0  0
  9 21  1  0  0  0
 10 11  1  0  0  0
 10 37  1  0  0  0
 11 20  2  0  0  0
 11 12  1  0  0  0
 12 13  2  0  0  0
 12 38  1  0  0  0
 13 14  1  0  0  0
 13 39  1  0  0  0
 14 15  1  0  0  0
 14 19  2  0  0  0
 15 16  1  0  0  0
 15 17  1  0  0  0
 15 18  1  0  0  0
 19 20  1  0  0  0
 19 40  1  0  0  0
 21 41  1  0  0  0
 22 23  1  0  0  0
 22 42  1  0  0  0
 23 32  2  0  0  0
 23 24  1  0  0  0
 24 25  2  0  0  0
 24 43  1  0  0  0
 25 26  1  0  0  0
 26 27  2  0  0  0
 26 44  1  0  0  0
 27 32  1  0  0  0
 27 28  1  0  0  0
 28 29  2  0  0  0
 28 45  1  0  0  0
 29 30  1  0  0  0
 29 46  1  0  0  0
 30 31  2  0  0  0
 30 47  1  0  0  0
 31 32  1  0  0  0
 31 48  1  0  0  0
M  END
> <r_i_docking_score>
-6.61523423879215

$$$$
ligprep_5.maegz:20
                    3D
 Schrodinger Suite 2020-4.
 50 53  0  0  1  0            999 V2000
    6.1314   -6.3318   21.9205 C   0  0  0  0  0  0
    6.3030   -4.9191   21.8603 O   0  0  0  0  0  0
    7.0325   -4.2805   22.8531 C   0  0  0  0  0  0
    7.6313   -4.9714   23.9215 C   0  0  0  0  0  0
    8.3714   -4.2918   24.8836 C   0  0  0  0  0  0
    9.1814   -5.2505   26.3084 Br  0  0  0  0  0  0
    8.5374   -2.9175   24.7939 C   0  0  0  0  0  0
    7.9482   -2.2186   23.7439 C   0  0  0  0  0  0
    7.1836   -2.8828   22.7723 C   0  0  0  0  0  0
    6.5958   -2.2227   21.6765 N   0  0  0  0  0  0
    6.3622   -0.8920   21.2985 C   0  0  0  0  0  0
    5.9695   -0.6745   19.9775 C   0  0  0  0  0  0
    5.7130    0.6153   19.5178 C   0  0  0  0  0  0
    5.1793    0.8564   17.9020 Cl  0  0  0  0  0  0
    5.8905    1.7098   20.3620 C   0  0  0  0  0  0
    6.2910    1.5132   21.6840 C   0  0  0  0  0  0
    6.5910    2.7131   22.5872 C   0  0  0  0  0  0
    8.0887    2.9323   22.9004 C   0  0  0  0  0  0
    8.4017    3.8640   23.6378 O   0  0  0  0  0  0
    8.9713    2.0531   22.3768 N   0  0  0  0  0  0
   10.3714    2.0002   22.5206 C   0  0  0  0  0  0
   11.1548    3.1473   22.7270 C   0  0  0  0  0  0
   12.5049    3.1366   22.8098 N   0  0  0  0  0  0
   13.1279    1.9437   22.6889 C   0  0  0  0  0  0
   12.4727    0.7150   22.4747 C   0  0  0  0  0  0
   13.1716   -0.5058   22.3095 C   0  0  0  0  0  0
   12.4693   -1.6870   22.0922 C   0  0  0  0  0  0
   11.0829   -1.6770   22.0026 C   0  0  0  0  0  0
   10.3733   -0.4854   22.1159 C   0  0  0  0  0  0
   11.0459    0.7413   22.3806 C   0  0  0  0  0  0
    6.4742    0.2082   22.1595 C   0  0  0  0  0  0
    5.5697   -6.6617   21.0502 H   0  0  0  0  0  0
    7.0881   -6.8567   21.9093 H   0  0  0  0  0  0
    5.5706   -6.6278   22.8072 H   0  0  0  0  0  0
    7.5450   -6.0415   24.0152 H   0  0  0  0  0  0
    9.1323   -2.3935   25.5260 H   0  0  0  0  0  0
    8.1467   -1.1675   23.7029 H   0  0  0  0  0  0
    6.3623   -2.8815   20.9485 H   0  0  0  0  0  0
    5.8476   -1.5041   19.2969 H   0  0  0  0  0  0
    5.7189    2.7080   19.9790 H   0  0  0  0  0  0
    6.0576    2.5807   23.5290 H   0  0  0  0  0  0
    6.2017    3.6272   22.1343 H   0  0  0  0  0  0
    8.5623    1.2932   21.8573 H   0  0  0  0  0  0
   10.7052    4.1280   22.7903 H   0  0  0  0  0  0
   14.2073    1.9722   22.7079 H   0  0  0  0  0  0
   14.2517   -0.5163   22.3622 H   0  0  0  0  0  0
   13.0012   -2.6184   21.9743 H   0  0  0  0  0  0
   10.5558   -2.6005   21.8076 H   0  0  0  0  0  0
    9.3043   -0.5006   21.9856 H   0  0  0  0  0  0
    6.6927    0.0854   23.2052 H   0  0  0  0  0  0
  1  2  1  0  0  0
  1 32  1  0  0  0
  1 33  1  0  0  0
  1 34  1  0  0  0
  2  3  1  0  0  0
  3  9  2  0  0  0
  3  4  1  0  0  0
  4  5  2  0  0  0
  4 35  1  0  0  0
  5  6  1  0  0  0
  5  7  1  0  0  0
  7  8  2  0  0  0
  7 36  1  0  0  0
  8  9  1  0  0  0
  8 37  1  0  0  0
  9 10  1  0  0  0
 10 11  1  0  0  0
 10 38  1  0  0  0
 11 31  2  0  0  0
 11 12  1  0  0  0
 12 13  2  0  0  0
 12 39  1  0  0  0
 13 14  1  0  0  0
 13 15  1  0  0  0
 15 16  2  0  0  0
 15 40  1  0  0  0
 16 17  1  0  0  0
 16 31  1  0  0  0
 17 18  1  0  0  0
 17 41  1  0  0  0
 17 42  1  0  0  0
 18 19  2  0  0  0
 18 20  1  0  0  0
 20 21  1  0  0  0
 20 43  1  0  0  0
 21 30  2  0  0  0
 21 22  1  0  0  0
 22 23  2  0  0  0
 22 44  1  0  0  0
 23 24  1  0  0  0
 24 25  2  0  0  0
 24 45  1  0  0  0
 25 30  1  0  0  0
 25 26  1  0  0  0
 26 27  2  0  0  0
 26 46  1  0  0  0
 27 28  1  0  0  0
 27 47  1  0  0  0
 28 29  2  0  0  0
 28 48  1  0  0  0
 29 30  1  0  0  0
 29 49  1  0  0  0
 31 50  1  0  0  0
M  END
> <r_i_docking_score>
-6.57946558363285

$$$$
ligprep_5.maegz:21
                    3D
 Schrodinger Suite 2020-4.
 55 58  0  0  1  0            999 V2000
   10.7859    3.1497   23.2551 C   0  0  0  0  0  0
    9.7234    2.5610   22.3103 C   0  0  0  0  0  0
    9.0550    1.3654   22.8442 N   0  0  0  0  0  0
    7.5827    1.3524   22.7429 C   0  0  0  0  0  0
    7.0654    1.1363   21.3186 C   0  0  0  0  0  0
    6.0226    1.9409   20.8460 C   0  0  0  0  0  0
    5.5130    1.7447   19.5652 C   0  0  0  0  0  0
    6.0470    0.7464   18.7562 C   0  0  0  0  0  0
    5.5690    0.5699   17.5081 F   0  0  0  0  0  0
    7.0749   -0.0678   19.2197 C   0  0  0  0  0  0
    7.5750    0.1162   20.5050 C   0  0  0  0  0  0
    9.7652    0.1447   23.0330 C   0  0  0  0  0  0
   11.0412   -0.0567   22.4793 C   0  0  0  0  0  0
   11.7089   -1.2719   22.6216 C   0  0  0  0  0  0
   13.2622   -1.4983   21.9082 Cl  0  0  0  0  0  0
   11.1194   -2.3112   23.3317 C   0  0  0  0  0  0
    9.8612   -2.1415   23.9076 C   0  0  0  0  0  0
    9.1914   -3.2961   24.6534 C   0  0  0  0  0  0
    7.9687   -3.8748   23.9170 C   0  0  0  0  0  0
    7.8116   -3.6545   22.7167 O   0  0  0  0  0  0
    7.1378   -4.6181   24.6799 N   0  0  0  0  0  0
    5.9161   -5.2517   24.3441 C   0  0  0  0  0  0
    5.3782   -5.2640   23.0442 C   0  0  0  0  0  0
    4.2043   -5.8422   22.7089 N   0  0  0  0  0  0
    3.5106   -6.4576   23.6874 C   0  0  0  0  0  0
    3.9260   -6.5401   25.0319 C   0  0  0  0  0  0
    3.1625   -7.2071   26.0207 C   0  0  0  0  0  0
    3.6130   -7.2527   27.3360 C   0  0  0  0  0  0
    4.8155   -6.6533   27.6908 C   0  0  0  0  0  0
    5.5890   -5.9931   26.7384 C   0  0  0  0  0  0
    5.1670   -5.9159   25.3779 C   0  0  0  0  0  0
    9.2039   -0.9152   23.7659 C   0  0  0  0  0  0
   11.2318    4.0414   22.8146 H   0  0  0  0  0  0
   10.3397    3.4414   24.2063 H   0  0  0  0  0  0
   11.5955    2.4531   23.4672 H   0  0  0  0  0  0
   10.1703    2.3344   21.3418 H   0  0  0  0  0  0
    8.9849    3.3392   22.1083 H   0  0  0  0  0  0
    7.1137    0.5976   23.3692 H   0  0  0  0  0  0
    7.2083    2.3031   23.1269 H   0  0  0  0  0  0
    5.6059    2.7249   21.4620 H   0  0  0  0  0  0
    4.7212    2.3779   19.1908 H   0  0  0  0  0  0
    7.4769   -0.8402   18.5805 H   0  0  0  0  0  0
    8.3602   -0.5356   20.8570 H   0  0  0  0  0  0
   11.5264    0.7173   21.9088 H   0  0  0  0  0  0
   11.6407   -3.2527   23.4264 H   0  0  0  0  0  0
    8.9013   -2.9514   25.6469 H   0  0  0  0  0  0
    9.9070   -4.1059   24.7996 H   0  0  0  0  0  0
    7.4131   -4.7305   25.6425 H   0  0  0  0  0  0
    5.8736   -4.8038   22.2060 H   0  0  0  0  0  0
    2.5810   -6.9181   23.3862 H   0  0  0  0  0  0
    2.2305   -7.6831   25.7505 H   0  0  0  0  0  0
    3.0327   -7.7735   28.0846 H   0  0  0  0  0  0
    5.1585   -6.7121   28.7136 H   0  0  0  0  0  0
    6.5220   -5.5462   27.0456 H   0  0  0  0  0  0
    8.2420   -0.8147   24.2394 H   0  0  0  0  0  0
  1  2  1  0  0  0
  1 33  1  0  0  0
  1 34  1  0  0  0
  1 35  1  0  0  0
  2  3  1  0  0  0
  2 36  1  0  0  0
  2 37  1  0  0  0
  3  4  1  0  0  0
  3 12  1  0  0  0
  4  5  1  0  0  0
  4 38  1  0  0  0
  4 39  1  0  0  0
  5 11  2  0  0  0
  5  6  1  0  0  0
  6  7  2  0  0  0
  6 40  1  0  0  0
  7  8  1  0  0  0
  7 41  1  0  0  0
  8  9  1  0  0  0
  8 10  2  0  0  0
 10 11  1  0  0  0
 10 42  1  0  0  0
 11 43  1  0  0  0
 12 32  2  0  0  0
 12 13  1  0  0  0
 13 14  2  0  0  0
 13 44  1  0  0  0
 14 15  1  0  0  0
 14 16  1  0  0  0
 16 17  2  0  0  0
 16 45  1  0  0  0
 17 18  1  0  0  0
 17 32  1  0  0  0
 18 19  1  0  0  0
 18 46  1  0  0  0
 18 47  1  0  0  0
 19 20  2  0  0  0
 19 21  1  0  0  0
 21 22  1  0  0  0
 21 48  1  0  0  0
 22 31  2  0  0  0
 22 23  1  0  0  0
 23 24  2  0  0  0
 23 49  1  0  0  0
 24 25  1  0  0  0
 25 26  2  0  0  0
 25 50  1  0  0  0
 26 31  1  0  0  0
 26 27  1  0  0  0
 27 28  2  0  0  0
 27 51  1  0  0  0
 28 29  1  0  0  0
 28 52  1  0  0  0
 29 30  2  0  0  0
 29 53  1  0  0  0
 30 31  1  0  0  0
 30 54  1  0  0  0
 32 55  1  0  0  0
M  END
> <r_i_docking_score>
-6.0488134800202

$$$$
ligprep_5.maegz:22
                    3D
 Schrodinger Suite 2020-4.
 51 55  0  0  1  0            999 V2000
    3.7051   -6.1136   27.3744 C   0  0  0  0  0  0
    4.2076   -5.6769   26.0100 C   0  0  0  0  0  0
    4.3727   -6.6315   25.0047 C   0  0  0  0  0  0
    4.8474   -6.2861   23.7390 C   0  0  0  0  0  0
    5.1344   -4.9424   23.4772 C   0  0  0  0  0  0
    5.5828   -4.4629   22.2860 N   0  0  0  0  0  0
    5.7448   -3.1727   22.3197 C   0  0  0  0  0  0
    6.1146   -2.5012   21.1788 N   0  0  0  0  0  0
    6.1614   -1.1312   20.8699 C   0  0  0  0  0  0
    5.9697   -0.7832   19.5306 C   0  0  0  0  0  0
    5.8944    0.5538   19.1486 C   0  0  0  0  0  0
    5.5718    0.9673   17.5080 Cl  0  0  0  0  0  0
    6.0491    1.5577   20.0993 C   0  0  0  0  0  0
    6.2984    1.2343   21.4337 C   0  0  0  0  0  0
    6.5049    2.3433   22.4687 C   0  0  0  0  0  0
    7.9706    2.6375   22.8423 C   0  0  0  0  0  0
    8.2076    3.6284   23.5314 O   0  0  0  0  0  0
    8.9129    1.7657   22.4237 N   0  0  0  0  0  0
   10.3109    1.8265   22.5853 C   0  0  0  0  0  0
   11.0066    3.0410   22.7078 C   0  0  0  0  0  0
   12.3539    3.1429   22.7682 N   0  0  0  0  0  0
   13.0640    1.9979   22.6950 C   0  0  0  0  0  0
   12.5019    0.7104   22.5692 C   0  0  0  0  0  0
   13.2930   -0.4537   22.4406 C   0  0  0  0  0  0
   12.6857   -1.6989   22.3077 C   0  0  0  0  0  0
   11.3008   -1.8131   22.3078 C   0  0  0  0  0  0
   10.4954   -0.6816   22.4038 C   0  0  0  0  0  0
   11.0754    0.6147   22.5269 C   0  0  0  0  0  0
    6.3698   -0.1116   21.8092 C   0  0  0  0  0  0
    5.3629   -2.3993   23.8512 S   0  0  0  0  0  0
    4.9455   -3.9728   24.4936 C   0  0  0  0  0  0
    4.4879   -4.3293   25.7692 C   0  0  0  0  0  0
    4.5017   -6.6095   27.9317 H   0  0  0  0  0  0
    3.3279   -5.2728   27.9586 H   0  0  0  0  0  0
    2.8823   -6.8225   27.2676 H   0  0  0  0  0  0
    4.1343   -7.6627   25.2137 H   0  0  0  0  0  0
    4.9890   -7.0350   22.9777 H   0  0  0  0  0  0
    6.2787   -3.0678   20.3610 H   0  0  0  0  0  0
    5.8234   -1.5465   18.7798 H   0  0  0  0  0  0
    5.9686    2.5922   19.7970 H   0  0  0  0  0  0
    5.9651    2.0863   23.3807 H   0  0  0  0  0  0
    6.0655    3.2714   22.0974 H   0  0  0  0  0  0
    8.5694    0.9432   21.9508 H   0  0  0  0  0  0
   10.4869    3.9878   22.7079 H   0  0  0  0  0  0
   14.1371    2.1100   22.7075 H   0  0  0  0  0  0
   14.3691   -0.3703   22.4516 H   0  0  0  0  0  0
   13.2911   -2.5892   22.2131 H   0  0  0  0  0  0
   10.8470   -2.7892   22.2043 H   0  0  0  0  0  0
    9.4224   -0.7982   22.3779 H   0  0  0  0  0  0
    6.5826   -0.3379   22.8397 H   0  0  0  0  0  0
    4.3538   -3.5833   26.5394 H   0  0  0  0  0  0
  1  2  1  0  0  0
  1 33  1  0  0  0
  1 34  1  0  0  0
  1 35  1  0  0  0
  2 32  2  0  0  0
  2  3  1  0  0  0
  3  4  2  0  0  0
  3 36  1  0  0  0
  4  5  1  0  0  0
  4 37  1  0  0  0
  5 31  2  0  0  0
  5  6  1  0  0  0
  6  7  2  0  0  0
  7  8  1  0  0  0
  7 30  1  0  0  0
  8  9  1  0  0  0
  8 38  1  0  0  0
  9 29  2  0  0  0
  9 10  1  0  0  0
 10 11  2  0  0  0
 10 39  1  0  0  0
 11 12  1  0  0  0
 11 13  1  0  0  0
 13 14  2  0  0  0
 13 40  1  0  0  0
 14 15  1  0  0  0
 14 29  1  0  0  0
 15 16  1  0  0  0
 15 41  1  0  0  0
 15 42  1  0  0  0
 16 17  2  0  0  0
 16 18  1  0  0  0
 18 19  1  0  0  0
 18 43  1  0  0  0
 19 28  2  0  0  0
 19 20  1  0  0  0
 20 21  2  0  0  0
 20 44  1  0  0  0
 21 22  1  0  0  0
 22 23  2  0  0  0
 22 45  1  0  0  0
 23 28  1  0  0  0
 23 24  1  0  0  0
 24 25  2  0  0  0
 24 46  1  0  0  0
 25 26  1  0  0  0
 25 47  1  0  0  0
 26 27  2  0  0  0
 26 48  1  0  0  0
 27 28  1  0  0  0
 27 49  1  0  0  0
 29 50  1  0  0  0
 30 31  1  0  0  0
 31 32  1  0  0  0
 32 51  1  0  0  0
M  END
> <r_i_docking_score>
-6.39932600518474

$$$$
ligprep_5.maegz:23
                    3D
 Schrodinger Suite 2020-4.
 57 61  0  0  1  0            999 V2000
    7.8390   -2.0499   22.8911 O   0  0  0  0  0  0
    8.2753   -2.6545   23.8717 C   0  0  0  0  0  0
    9.4499   -2.1064   24.6804 C   0  0  0  0  0  0
   10.4458   -1.2959   23.8644 C   0  0  0  0  0  0
   11.4150   -1.9466   23.1054 C   0  0  0  0  0  0
   12.3646   -1.2096   22.4061 C   0  0  0  0  0  0
   13.5695   -2.0402   21.4978 Cl  0  0  0  0  0  0
   12.3446    0.1853   22.4570 C   0  0  0  0  0  0
   11.3338    0.8653   23.1566 C   0  0  0  0  0  0
   11.2462    2.2563   23.1595 N   0  0  0  0  0  0
   12.3521    3.1504   22.7622 C   0  0  0  0  0  0
   12.0726    4.6783   22.8264 C   0  0  0  0  0  0
   11.0705    4.9804   23.8637 N   0  0  0  0  0  0
   11.3132    5.9988   24.7397 C   0  0  0  0  0  0
   12.3703    6.6335   24.7355 O   0  0  0  0  0  0
   10.3247    6.3472   25.7516 C   0  0  0  0  0  0
    8.9334    6.2522   25.8420 C   0  0  0  0  0  0
    8.5476    6.8338   27.0493 C   0  0  0  0  0  0
    9.7062    7.3192   27.6255 C   0  0  0  0  0  0
   10.7718    7.0479   26.8329 O   0  0  0  0  0  0
    9.7959    4.2462   23.7715 C   0  0  0  0  0  0
    9.9451    2.9202   22.9858 C   0  0  0  0  0  0
   10.3985    0.1006   23.8687 C   0  0  0  0  0  0
    7.7605   -3.8000   24.3620 N   0  0  0  0  0  0
    6.7112   -4.5585   23.8285 C   0  0  0  0  0  0
    6.5385   -4.6967   22.4436 C   0  0  0  0  0  0
    5.5553   -5.4280   21.8793 N   0  0  0  0  0  0
    4.6950   -6.0528   22.7117 C   0  0  0  0  0  0
    4.7741   -6.0361   24.1191 C   0  0  0  0  0  0
    3.8701   -6.7499   24.9407 C   0  0  0  0  0  0
    4.0103   -6.7132   26.3259 C   0  0  0  0  0  0
    5.0327   -5.9765   26.9123 C   0  0  0  0  0  0
    5.9274   -5.2536   26.1266 C   0  0  0  0  0  0
    5.8238   -5.2662   24.7047 C   0  0  0  0  0  0
    9.0528   -1.5080   25.5006 H   0  0  0  0  0  0
    9.9699   -2.9588   25.1097 H   0  0  0  0  0  0
   11.4501   -3.0256   23.0769 H   0  0  0  0  0  0
   13.0985    0.7315   21.9089 H   0  0  0  0  0  0
   13.1487    2.9504   23.4819 H   0  0  0  0  0  0
   12.6837    2.9155   21.7497 H   0  0  0  0  0  0
   12.9927    5.2620   22.8622 H   0  0  0  0  0  0
   11.5725    4.9628   21.9057 H   0  0  0  0  0  0
    8.2535    5.8185   25.1233 H   0  0  0  0  0  0
    7.5437    6.9168   27.4418 H   0  0  0  0  0  0
    9.9147    7.8606   28.5367 H   0  0  0  0  0  0
    9.0004    4.8420   23.3231 H   0  0  0  0  0  0
    9.5363    3.9231   24.7821 H   0  0  0  0  0  0
    9.8912    3.1442   21.9188 H   0  0  0  0  0  0
    9.0998    2.2624   23.1897 H   0  0  0  0  0  0
    9.6346    0.5931   24.4514 H   0  0  0  0  0  0
    8.1395   -4.1347   25.2348 H   0  0  0  0  0  0
    7.2097   -4.2127   21.7454 H   0  0  0  0  0  0
    3.9138   -6.6342   22.2462 H   0  0  0  0  0  0
    3.0756   -7.3277   24.4874 H   0  0  0  0  0  0
    3.3236   -7.2705   26.9501 H   0  0  0  0  0  0
    5.1297   -5.9645   27.9870 H   0  0  0  0  0  0
    6.7103   -4.6858   26.6067 H   0  0  0  0  0  0
  1  2  2  0  0  0
  2  3  1  0  0  0
  2 24  1  0  0  0
  3  4  1  0  0  0
  3 35  1  0  0  0
  3 36  1  0  0  0
  4 23  2  0  0  0
  4  5  1  0  0  0
  5  6  2  0  0  0
  5 37  1  0  0  0
  6  7  1  0  0  0
  6  8  1  0  0  0
  8  9  2  0  0  0
  8 38  1  0  0  0
  9 10  1  0  0  0
  9 23  1  0  0  0
 10 22  1  0  0  0
 10 11  1  0  0  0
 11 12  1  0  0  0
 11 39  1  0  0  0
 11 40  1  0  0  0
 12 13  1  0  0  0
 12 41  1  0  0  0
 12 42  1  0  0  0
 13 14  1  0  0  0
 13 21  1  0  0  0
 14 15  2  0  0  0
 14 16  1  0  0  0
 16 20  1  0  0  0
 16 17  2  0  0  0
 17 18  1  0  0  0
 17 43  1  0  0  0
 18 19  2  0  0  0
 18 44  1  0  0  0
 19 20  1  0  0  0
 19 45  1  0  0  0
 21 22  1  0  0  0
 21 46  1  0  0  0
 21 47  1  0  0  0
 22 48  1  0  0  0
 22 49  1  0  0  0
 23 50  1  0  0  0
 24 25  1  0  0  0
 24 51  1  0  0  0
 25 34  2  0  0  0
 25 26  1  0  0  0
 26 27  2  0  0  0
 26 52  1  0  0  0
 27 28  1  0  0  0
 28 29  2  0  0  0
 28 53  1  0  0  0
 29 34  1  0  0  0
 29 30  1  0  0  0
 30 31  2  0  0  0
 30 54  1  0  0  0
 31 32  1  0  0  0
 31 55  1  0  0  0
 32 33  2  0  0  0
 32 56  1  0  0  0
 33 34  1  0  0  0
 33 57  1  0  0  0
M  END
> <r_i_docking_score>
-6.7669787382664

$$$$
ligprep_5.maegz:24
                    3D
 Schrodinger Suite 2020-4.
 49 52  0  0  1  0            999 V2000
    7.4545    0.6486   25.2259 O   0  0  0  0  0  0
    8.3248    0.0024   25.8057 C   0  0  0  0  0  0
    7.9139   -0.9726   26.9212 C   0  0  0  0  0  0
    7.7250   -2.3785   26.3617 C   0  0  0  0  0  0
    8.7276   -3.3329   26.5057 C   0  0  0  0  0  0
    8.6623   -4.5434   25.8259 C   0  0  0  0  0  0
    9.9707   -5.6454   25.9080 Cl  0  0  0  0  0  0
    7.5695   -4.8319   25.0202 C   0  0  0  0  0  0
    6.5408   -3.9049   24.8938 C   0  0  0  0  0  0
    5.5169   -4.2033   23.9927 N   0  0  0  0  0  0
    4.7266   -3.1326   23.4107 C   0  0  0  0  0  0
    5.5530   -2.2381   22.4941 C   0  0  0  0  0  0
    5.7938   -2.6589   21.1904 C   0  0  0  0  0  0
    6.2634   -1.7418   20.2636 C   0  0  0  0  0  0
    6.6092   -0.4614   20.6529 C   0  0  0  0  0  0
    7.1696    0.7472   19.3129 Br  0  0  0  0  0  0
    6.5108   -0.0731   21.9833 C   0  0  0  0  0  0
    5.9698   -0.9649   22.9039 C   0  0  0  0  0  0
    6.6025   -2.6966   25.6014 C   0  0  0  0  0  0
    9.6390    0.0471   25.5068 N   0  0  0  0  0  0
   10.3131    0.8573   24.5720 C   0  0  0  0  0  0
   11.3363    0.2197   23.8611 C   0  0  0  0  0  0
   12.1287    0.8246   22.9485 N   0  0  0  0  0  0
   11.9154    2.1371   22.7192 C   0  0  0  0  0  0
   10.9412    2.9189   23.3760 C   0  0  0  0  0  0
   10.7922    4.3015   23.1115 C   0  0  0  0  0  0
    9.8413    5.0474   23.7983 C   0  0  0  0  0  0
    9.0452    4.4479   24.7661 C   0  0  0  0  0  0
    9.1750    3.0908   25.0529 C   0  0  0  0  0  0
   10.1084    2.2718   24.3479 C   0  0  0  0  0  0
    8.6813   -0.9613   27.6979 H   0  0  0  0  0  0
    6.9896   -0.6248   27.3848 H   0  0  0  0  0  0
    9.5698   -3.1173   27.1257 H   0  0  0  0  0  0
    7.5493   -5.7538   24.4605 H   0  0  0  0  0  0
    5.5529   -5.0859   23.5041 H   0  0  0  0  0  0
    3.9417   -3.5974   22.8187 H   0  0  0  0  0  0
    4.2262   -2.5396   24.1772 H   0  0  0  0  0  0
    5.5311   -3.6541   20.8707 H   0  0  0  0  0  0
    6.3630   -2.0290   19.2276 H   0  0  0  0  0  0
    6.7811    0.9275   22.2875 H   0  0  0  0  0  0
    5.7710   -0.6114   23.9013 H   0  0  0  0  0  0
    5.8143   -1.9663   25.5248 H   0  0  0  0  0  0
   10.2057   -0.6632   25.9403 H   0  0  0  0  0  0
   11.5415   -0.8309   24.0089 H   0  0  0  0  0  0
   12.5648    2.5983   21.9884 H   0  0  0  0  0  0
   11.4114    4.7714   22.3604 H   0  0  0  0  0  0
    9.7254    6.0995   23.5825 H   0  0  0  0  0  0
    8.3237    5.0429   25.3068 H   0  0  0  0  0  0
    8.5690    2.6794   25.8421 H   0  0  0  0  0  0
  1  2  2  0  0  0
  2  3  1  0  0  0
  2 20  1  0  0  0
  3  4  1  0  0  0
  3 31  1  0  0  0
  3 32  1  0  0  0
  4 19  2  0  0  0
  4  5  1  0  0  0
  5  6  2  0  0  0
  5 33  1  0  0  0
  6  7  1  0  0  0
  6  8  1  0  0  0
  8  9  2  0  0  0
  8 34  1  0  0  0
  9 10  1  0  0  0
  9 19  1  0  0  0
 10 11  1  0  0  0
 10 35  1  0  0  0
 11 12  1  0  0  0
 11 36  1  0  0  0
 11 37  1  0  0  0
 12 18  2  0  0  0
 12 13  1  0  0  0
 13 14  2  0  0  0
 13 38  1  0  0  0
 14 15  1  0  0  0
 14 39  1  0  0  0
 15 16  1  0  0  0
 15 17  2  0  0  0
 17 18  1  0  0  0
 17 40  1  0  0  0
 18 41  1  0  0  0
 19 42  1  0  0  0
 20 21  1  0  0  0
 20 43  1  0  0  0
 21 30  2  0  0  0
 21 22  1  0  0  0
 22 23  2  0  0  0
 22 44  1  0  0  0
 23 24  1  0  0  0
 24 25  2  0  0  0
 24 45  1  0  0  0
 25 30  1  0  0  0
 25 26  1  0  0  0
 26 27  2  0  0  0
 26 46  1  0  0  0
 27 28  1  0  0  0
 27 47  1  0  0  0
 28 29  2  0  0  0
 28 48  1  0  0  0
 29 30  1  0  0  0
 29 49  1  0  0  0
M  END
> <r_i_docking_score>
-3.4197686748993

$$$$
ligprep_5.maegz:25
                    3D
 Schrodinger Suite 2020-4.
 58 62  0  0  1  0            999 V2000
    6.2690    1.9350   24.3859 C   0  0  0  0  0  0
    7.5623    2.4717   24.8109 N   0  0  0  0  0  0
    8.5338    1.5209   25.3814 C   0  0  0  0  0  0
    9.4183    0.8803   24.3054 C   0  0  0  0  0  0
   10.6267    1.4958   23.9695 C   0  0  0  0  0  0
   11.4518    0.9727   22.9826 C   0  0  0  0  0  0
   11.0929   -0.1863   22.3084 C   0  0  0  0  0  0
    9.8925   -0.8617   22.6309 C   0  0  0  0  0  0
    9.5286   -2.0529   21.9596 C   0  0  0  0  0  0
    8.3669   -2.7350   22.3081 C   0  0  0  0  0  0
    7.5364   -2.2451   23.3050 C   0  0  0  0  0  0
    7.8533   -1.0678   23.9717 C   0  0  0  0  0  0
    9.0366   -0.3393   23.6537 C   0  0  0  0  0  0
    8.0084    3.7175   24.2859 C   0  0  0  0  0  0
    9.0965    4.3859   24.8634 C   0  0  0  0  0  0
    9.5836    5.5801   24.3405 C   0  0  0  0  0  0
   10.9531    6.3455   25.0615 Cl  0  0  0  0  0  0
    8.9575    6.1568   23.2406 C   0  0  0  0  0  0
    7.8322    5.5484   22.6795 C   0  0  0  0  0  0
    7.1058    6.1973   21.5047 C   0  0  0  0  0  0
    6.4194    7.5403   21.8243 C   0  0  0  0  0  0
    6.6313    8.1055   22.8988 O   0  0  0  0  0  0
    5.6178    8.0181   20.8479 N   0  0  0  0  0  0
    4.9406    9.2642   20.7628 C   0  0  0  0  0  0
    5.1669   10.3278   21.6543 C   0  0  0  0  0  0
    4.5551   11.5333   21.5880 N   0  0  0  0  0  0
    3.6791   11.7299   20.5838 C   0  0  0  0  0  0
    3.3548   10.7673   19.6071 C   0  0  0  0  0  0
    2.4332   11.0296   18.5622 C   0  0  0  0  0  0
    2.1474   10.0443   17.6232 C   0  0  0  0  0  0
    2.7592    8.7986   17.6994 C   0  0  0  0  0  0
    3.6674    8.5193   18.7162 C   0  0  0  0  0  0
    3.9991    9.4919   19.6986 C   0  0  0  0  0  0
    7.3764    4.3333   23.1941 C   0  0  0  0  0  0
    5.5096    2.7182   24.3467 H   0  0  0  0  0  0
    6.3460    1.4913   23.3913 H   0  0  0  0  0  0
    5.9060    1.1780   25.0817 H   0  0  0  0  0  0
    9.1680    2.0122   26.1119 H   0  0  0  0  0  0
    8.0239    0.7564   25.9676 H   0  0  0  0  0  0
   10.9338    2.4013   24.4722 H   0  0  0  0  0  0
   12.3741    1.4764   22.7346 H   0  0  0  0  0  0
   11.7323   -0.5904   21.5385 H   0  0  0  0  0  0
   10.1657   -2.4445   21.1806 H   0  0  0  0  0  0
    8.1090   -3.6517   21.7974 H   0  0  0  0  0  0
    6.6348   -2.7812   23.5657 H   0  0  0  0  0  0
    7.1816   -0.7186   24.7373 H   0  0  0  0  0  0
    9.5690    3.9878   25.7393 H   0  0  0  0  0  0
    9.3258    7.0900   22.8439 H   0  0  0  0  0  0
    6.3697    5.5027   21.1084 H   0  0  0  0  0  0
    7.8327    6.3469   20.7072 H   0  0  0  0  0  0
    5.4504    7.3698   20.0832 H   0  0  0  0  0  0
    5.8813   10.2648   22.4572 H   0  0  0  0  0  0
    3.2120   12.7026   20.5495 H   0  0  0  0  0  0
    1.9558   11.9963   18.4978 H   0  0  0  0  0  0
    1.4452   10.2439   16.8267 H   0  0  0  0  0  0
    2.5350    8.0386   16.9647 H   0  0  0  0  0  0
    4.1279    7.5470   18.7488 H   0  0  0  0  0  0
    6.5273    3.8664   22.7222 H   0  0  0  0  0  0
  1  2  1  0  0  0
  1 35  1  0  0  0
  1 36  1  0  0  0
  1 37  1  0  0  0
  2  3  1  0  0  0
  2 14  1  0  0  0
  3  4  1  0  0  0
  3 38  1  0  0  0
  3 39  1  0  0  0
  4 13  2  0  0  0
  4  5  1  0  0  0
  5  6  2  0  0  0
  5 40  1  0  0  0
  6  7  1  0  0  0
  6 41  1  0  0  0
  7  8  2  0  0  0
  7 42  1  0  0  0
  8 13  1  0  0  0
  8  9  1  0  0  0
  9 10  2  0  0  0
  9 43  1  0  0  0
 10 11  1  0  0  0
 10 44  1  0  0  0
 11 12  2  0  0  0
 11 45  1  0  0  0
 12 13  1  0  0  0
 12 46  1  0  0  0
 14 34  2  0  0  0
 14 15  1  0  0  0
 15 16  2  0  0  0
 15 47  1  0  0  0
 16 17  1  0  0  0
 16 18  1  0  0  0
 18 19  2  0  0  0
 18 48  1  0  0  0
 19 20  1  0  0  0
 19 34  1  0  0  0
 20 21  1  0  0  0
 20 49  1  0  0  0
 20 50  1  0  0  0
 21 22  2  0  0  0
 21 23  1  0  0  0
 23 24  1  0  0  0
 23 51  1  0  0  0
 24 33  2  0  0  0
 24 25  1  0  0  0
 25 26  2  0  0  0
 25 52  1  0  0  0
 26 27  1  0  0  0
 27 28  2  0  0  0
 27 53  1  0  0  0
 28 33  1  0  0  0
 28 29  1  0  0  0
 29 30  2  0  0  0
 29 54  1  0  0  0
 30 31  1  0  0  0
 30 55  1  0  0  0
 31 32  2  0  0  0
 31 56  1  0  0  0
 32 33  1  0  0  0
 32 57  1  0  0  0
 34 58  1  0  0  0
M  END
> <r_i_docking_score>
-4.20516040078343

$$$$
ligprep_5.maegz:26
                    3D
 Schrodinger Suite 2020-4.
 57 60  0  0  1  0            999 V2000
   13.4158    3.8338   22.3437 C   0  0  0  0  0  0
   12.4739    5.0205   22.0833 C   0  0  0  0  0  0
   11.1059    5.1906   23.3846 S   0  0  0  0  0  0
   10.3667    6.4204   23.0858 O   0  0  0  0  0  0
   11.7160    5.0403   24.7079 O   0  0  0  0  0  0
    9.9997    3.8190   23.1080 N   0  0  0  0  0  0
    8.5600    4.0053   23.3652 C   0  0  0  0  0  0
    8.2691    3.7235   24.8573 C   0  0  0  0  0  0
    8.6461    2.3359   25.2194 N   0  0  0  0  0  0
    7.6830    1.3308   25.2311 C   0  0  0  0  0  0
    6.4561    1.5304   25.8796 C   0  0  0  0  0  0
    5.4586    0.5558   25.8450 C   0  0  0  0  0  0
    3.9432    0.8431   26.6179 Cl  0  0  0  0  0  0
    5.6717   -0.6351   25.1544 C   0  0  0  0  0  0
    6.8924   -0.8633   24.5153 C   0  0  0  0  0  0
    7.0649   -2.0600   23.5811 C   0  0  0  0  0  0
    6.5994   -1.7195   22.1530 C   0  0  0  0  0  0
    5.9699   -2.5589   21.5055 O   0  0  0  0  0  0
    6.8917   -0.4755   21.7106 N   0  0  0  0  0  0
    6.3308    0.1217   20.5827 C   0  0  0  0  0  0
    6.5668   -0.4097   19.3127 C   0  0  0  0  0  0
    6.0057    0.0742   18.1857 N   0  0  0  0  0  0
    5.1698    1.1211   18.3101 C   0  0  0  0  0  0
    4.8164    1.7288   19.5286 C   0  0  0  0  0  0
    3.8472    2.7487   19.6146 C   0  0  0  0  0  0
    3.5725    3.3490   20.8408 C   0  0  0  0  0  0
    4.2687    2.9712   21.9839 C   0  0  0  0  0  0
    5.2116    1.9470   21.9318 C   0  0  0  0  0  0
    5.4735    1.2637   20.7068 C   0  0  0  0  0  0
    7.8966    0.1061   24.5844 C   0  0  0  0  0  0
   10.0598    2.0659   24.8645 C   0  0  0  0  0  0
   10.4098    2.4306   23.4045 C   0  0  0  0  0  0
   14.3967    4.0192   21.9083 H   0  0  0  0  0  0
   13.5674    3.6640   23.4088 H   0  0  0  0  0  0
   13.0405    2.9142   21.8962 H   0  0  0  0  0  0
   11.9880    4.9515   21.1133 H   0  0  0  0  0  0
   13.0351    5.9516   22.1207 H   0  0  0  0  0  0
    8.2901    5.0201   23.0727 H   0  0  0  0  0  0
    7.9792    3.3454   22.7186 H   0  0  0  0  0  0
    7.2293    3.9552   25.0880 H   0  0  0  0  0  0
    8.8961    4.3670   25.4774 H   0  0  0  0  0  0
    6.2667    2.4521   26.4092 H   0  0  0  0  0  0
    4.8745   -1.3605   25.0805 H   0  0  0  0  0  0
    6.4840   -2.9049   23.9544 H   0  0  0  0  0  0
    8.1063   -2.3809   23.5431 H   0  0  0  0  0  0
    7.3280    0.1512   22.3683 H   0  0  0  0  0  0
    7.2260   -1.2520   19.1806 H   0  0  0  0  0  0
    4.7697    1.4976   17.3911 H   0  0  0  0  0  0
    3.3477    3.0878   18.7169 H   0  0  0  0  0  0
    2.8488    4.1489   20.8916 H   0  0  0  0  0  0
    4.0636    3.4652   22.9223 H   0  0  0  0  0  0
    5.7075    1.6345   22.8376 H   0  0  0  0  0  0
    8.8182   -0.0735   24.0523 H   0  0  0  0  0  0
   10.6027    2.7468   25.5077 H   0  0  0  0  0  0
   10.3755    1.0550   25.1266 H   0  0  0  0  0  0
   11.4778    2.3348   23.2406 H   0  0  0  0  0  0
    9.9188    1.7552   22.7035 H   0  0  0  0  0  0
  1  2  1  0  0  0
  1 33  1  0  0  0
  1 34  1  0  0  0
  1 35  1  0  0  0
  2  3  1  0  0  0
  2 36  1  0  0  0
  2 37  1  0  0  0
  3  4  2  0  0  0
  3  5  2  0  0  0
  3  6  1  0  0  0
  6 32  1  0  0  0
  6  7  1  0  0  0
  7  8  1  0  0  0
  7 38  1  0  0  0
  7 39  1  0  0  0
  8  9  1  0  0  0
  8 40  1  0  0  0
  8 41  1  0  0  0
  9 10  1  0  0  0
  9 31  1  0  0  0
 10 30  2  0  0  0
 10 11  1  0  0  0
 11 12  2  0  0  0
 11 42  1  0  0  0
 12 13  1  0  0  0
 12 14  1  0  0  0
 14 15  2  0  0  0
 14 43  1  0  0  0
 15 16  1  0  0  0
 15 30  1  0  0  0
 16 17  1  0  0  0
 16 44  1  0  0  0
 16 45  1  0  0  0
 17 18  2  0  0  0
 17 19  1  0  0  0
 19 20  1  0  0  0
 19 46  1  0  0  0
 20 29  2  0  0  0
 20 21  1  0  0  0
 21 22  2  0  0  0
 21 47  1  0  0  0
 22 23  1  0  0  0
 23 24  2  0  0  0
 23 48  1  0  0  0
 24 29  1  0  0  0
 24 25  1  0  0  0
 25 26  2  0  0  0
 25 49  1  0  0  0
 26 27  1  0  0  0
 26 50  1  0  0  0
 27 28  2  0  0  0
 27 51  1  0  0  0
 28 29  1  0  0  0
 28 52  1  0  0  0
 30 53  1  0  0  0
 31 32  1  0  0  0
 31 54  1  0  0  0
 31 55  1  0  0  0
 32 56  1  0  0  0
 32 57  1  0  0  0
M  END
> <r_i_docking_score>
-4.12039381445591

$$$$
ligprep_5.maegz:27
                    3D
 Schrodinger Suite 2020-4.
 49 52  0  0  1  0            999 V2000
    5.3661   -2.1545   22.8948 C   0  0  0  0  0  0
    6.4872   -1.9706   22.0397 O   0  0  0  0  0  0
    6.4559   -1.0150   21.0357 C   0  0  0  0  0  0
    5.2662   -0.4523   20.7055 N   0  0  0  0  0  0
    5.1707    0.3205   19.6036 C   0  0  0  0  0  0
    6.2401    0.5063   18.7418 C   0  0  0  0  0  0
    5.9695    1.4426   17.1093 Br  0  0  0  0  0  0
    7.4836   -0.0163   19.1090 C   0  0  0  0  0  0
    7.6196   -0.7206   20.3176 C   0  0  0  0  0  0
    8.9002   -1.1134   20.7383 N   0  0  0  0  0  0
    9.5651   -0.9132   21.9616 C   0  0  0  0  0  0
   10.9430   -0.7717   21.8931 C   0  0  0  0  0  0
   11.7041   -0.4079   22.9879 C   0  0  0  0  0  0
   13.3730   -0.0525   22.7080 Cl  0  0  0  0  0  0
   11.0982   -0.3044   24.2412 C   0  0  0  0  0  0
    9.7194   -0.5251   24.3621 C   0  0  0  0  0  0
    9.0179   -0.4571   25.7198 C   0  0  0  0  0  0
    8.0962    0.7635   25.8777 C   0  0  0  0  0  0
    7.0492    0.6518   26.5147 O   0  0  0  0  0  0
    8.5524    1.8993   25.3120 N   0  0  0  0  0  0
    8.0348    3.2084   25.3063 C   0  0  0  0  0  0
    6.8052    3.5700   25.8828 C   0  0  0  0  0  0
    6.3211    4.8337   25.9003 N   0  0  0  0  0  0
    7.0696    5.7995   25.3247 C   0  0  0  0  0  0
    8.3221    5.5801   24.7099 C   0  0  0  0  0  0
    9.0805    6.6251   24.1297 C   0  0  0  0  0  0
   10.3104    6.3467   23.5409 C   0  0  0  0  0  0
   10.8085    5.0506   23.5096 C   0  0  0  0  0  0
   10.0858    4.0043   24.0722 C   0  0  0  0  0  0
    8.8220    4.2407   24.6933 C   0  0  0  0  0  0
    8.9564   -0.7651   23.2125 C   0  0  0  0  0  0
    5.5846   -2.9458   23.6098 H   0  0  0  0  0  0
    5.1691   -1.2451   23.4627 H   0  0  0  0  0  0
    4.4742   -2.4518   22.3438 H   0  0  0  0  0  0
    4.1989    0.7400   19.3836 H   0  0  0  0  0  0
    8.3301    0.1467   18.4618 H   0  0  0  0  0  0
    9.5452   -1.2502   19.9691 H   0  0  0  0  0  0
   11.4369   -0.8532   20.9425 H   0  0  0  0  0  0
   11.6854   -0.0503   25.1116 H   0  0  0  0  0  0
    9.7433   -0.4520   26.5348 H   0  0  0  0  0  0
    8.4267   -1.3644   25.8465 H   0  0  0  0  0  0
    9.4245    1.8002   24.8188 H   0  0  0  0  0  0
    6.1632    2.8445   26.3589 H   0  0  0  0  0  0
    6.6572    6.7978   25.3562 H   0  0  0  0  0  0
    8.6998    7.6355   24.1495 H   0  0  0  0  0  0
   10.8874    7.1445   23.1046 H   0  0  0  0  0  0
   11.7610    4.8561   23.0358 H   0  0  0  0  0  0
   10.4960    3.0081   24.0281 H   0  0  0  0  0  0
    7.8928   -0.8234   23.3331 H   0  0  0  0  0  0
  1  2  1  0  0  0
  1 32  1  0  0  0
  1 33  1  0  0  0
  1 34  1  0  0  0
  2  3  1  0  0  0
  3  9  2  0  0  0
  3  4  1  0  0  0
  4  5  2  0  0  0
  5  6  1  0  0  0
  5 35  1  0  0  0
  6  7  1  0  0  0
  6  8  2  0  0  0
  8  9  1  0  0  0
  8 36  1  0  0  0
  9 10  1  0  0  0
 10 11  1  0  0  0
 10 37  1  0  0  0
 11 31  2  0  0  0
 11 12  1  0  0  0
 12 13  2  0  0  0
 12 38  1  0  0  0
 13 14  1  0  0  0
 13 15  1  0  0  0
 15 16  2  0  0  0
 15 39  1  0  0  0
 16 17  1  0  0  0
 16 31  1  0  0  0
 17 18  1  0  0  0
 17 40  1  0  0  0
 17 41  1  0  0  0
 18 19  2  0  0  0
 18 20  1  0  0  0
 20 21  1  0  0  0
 20 42  1  0  0  0
 21 30  2  0  0  0
 21 22  1  0  0  0
 22 23  2  0  0  0
 22 43  1  0  0  0
 23 24  1  0  0  0
 24 25  2  0  0  0
 24 44  1  0  0  0
 25 30  1  0  0  0
 25 26  1  0  0  0
 26 27  2  0  0  0
 26 45  1  0  0  0
 27 28  1  0  0  0
 27 46  1  0  0  0
 28 29  2  0  0  0
 28 47  1  0  0  0
 29 30  1  0  0  0
 29 48  1  0  0  0
 31 49  1  0  0  0
M  END
> <r_i_docking_score>
-4.129877947488

$$$$
ligprep_5.maegz:28
                    3D
 Schrodinger Suite 2020-4.
 56 60  0  0  1  0            999 V2000
    5.6047   -3.7485   21.9669 O   0  0  0  0  0  0
    6.5855   -3.5633   22.6896 C   0  0  0  0  0  0
    7.4670   -4.7503   23.0940 C   0  0  0  0  0  0
    7.8600   -4.7571   24.5016 N   0  0  0  0  0  0
    8.9827   -4.2095   25.0708 C   0  0  0  0  0  0
    8.8650   -4.4582   26.4310 C   0  0  0  0  0  0
    7.7472   -5.0977   26.7232 N   0  0  0  0  0  0
    7.1483   -5.2530   25.5676 C   0  0  0  0  0  0
    6.9547   -2.3537   23.1478 N   0  0  0  0  0  0
    6.2347   -1.0887   22.9421 C   0  0  0  0  0  0
    6.5602   -0.2709   21.6408 C   0  0  1  0  0  0
    8.0943    0.0027   21.6277 C   0  0  0  0  0  0
    8.7700   -0.4474   20.7088 O   0  0  0  0  0  0
    8.6108    0.7473   22.6332 N   0  0  0  0  0  0
    9.9371    1.1854   22.7637 C   0  0  0  0  0  0
   10.1172    2.5485   23.0193 C   0  0  0  0  0  0
   11.3233    3.1522   23.1162 N   0  0  0  0  0  0
   12.4160    2.3786   22.9421 C   0  0  0  0  0  0
   12.3847    0.9883   22.7080 C   0  0  0  0  0  0
   13.5605    0.2312   22.5084 C   0  0  0  0  0  0
   13.4728   -1.1409   22.2969 C   0  0  0  0  0  0
   12.2430   -1.7848   22.3085 C   0  0  0  0  0  0
   11.0720   -1.0629   22.4992 C   0  0  0  0  0  0
   11.1048    0.3521   22.6549 C   0  0  0  0  0  0
    6.1524   -1.0875   20.3701 C   0  0  0  0  0  0
    6.0943   -0.2262   19.0961 C   0  0  0  0  0  0
    5.1148    0.7942   19.2558 O   0  0  0  0  0  0
    5.1982    1.5397   20.4156 C   0  0  0  0  0  0
    4.5038    2.7464   20.3751 C   0  0  0  0  0  0
    4.4345    3.5501   21.5079 C   0  0  0  0  0  0
    5.0661    3.1568   22.6812 C   0  0  0  0  0  0
    4.9999    4.1620   24.0823 Cl  0  0  0  0  0  0
    5.7534    1.9474   22.7233 C   0  0  0  0  0  0
    5.8401    1.1014   21.6012 C   0  0  0  0  0  0
    6.9399   -5.6827   22.8853 H   0  0  0  0  0  0
    8.3690   -4.7399   22.4818 H   0  0  0  0  0  0
    9.7424   -3.7214   24.4777 H   0  0  0  0  0  0
    9.5690   -4.1792   27.1997 H   0  0  0  0  0  0
    6.1927   -5.7291   25.4023 H   0  0  0  0  0  0
    7.7703   -2.3111   23.7421 H   0  0  0  0  0  0
    6.4302   -0.5003   23.8393 H   0  0  0  0  0  0
    5.1683   -1.2828   22.9837 H   0  0  0  0  0  0
    7.9414    1.2135   23.2242 H   0  0  0  0  0  0
    9.2679    3.2101   23.1115 H   0  0  0  0  0  0
   13.3684    2.8860   22.9920 H   0  0  0  0  0  0
   14.5160    0.7266   22.5046 H   0  0  0  0  0  0
   14.3678   -1.7216   22.1388 H   0  0  0  0  0  0
   12.1929   -2.8531   22.1581 H   0  0  0  0  0  0
   10.1332   -1.5898   22.4987 H   0  0  0  0  0  0
    5.1701   -1.5176   20.5207 H   0  0  0  0  0  0
    6.8071   -1.9458   20.2143 H   0  0  0  0  0  0
    5.8326   -0.8376   18.2332 H   0  0  0  0  0  0
    7.0672    0.2211   18.8858 H   0  0  0  0  0  0
    4.0217    3.0640   19.4619 H   0  0  0  0  0  0
    3.9143    4.4961   21.4560 H   0  0  0  0  0  0
    6.2081    1.6713   23.6603 H   0  0  0  0  0  0
  1  2  2  0  0  0
  2  3  1  0  0  0
  2  9  1  0  0  0
  3  4  1  0  0  0
  3 35  1  0  0  0
  3 36  1  0  0  0
  4  8  1  0  0  0
  4  5  1  0  0  0
  5  6  2  0  0  0
  5 37  1  0  0  0
  6  7  1  0  0  0
  6 38  1  0  0  0
  7  8  2  0  0  0
  8 39  1  0  0  0
  9 10  1  0  0  0
  9 40  1  0  0  0
 10 11  1  0  0  0
 10 41  1  0  0  0
 10 42  1  0  0  0
 11 34  1  0  0  0
 11 12  1  0  0  0
 11 25  1  0  0  0
 12 13  2  0  0  0
 12 14  1  0  0  0
 14 15  1  0  0  0
 14 43  1  0  0  0
 15 24  2  0  0  0
 15 16  1  0  0  0
 16 17  2  0  0  0
 16 44  1  0  0  0
 17 18  1  0  0  0
 18 19  2  0  0  0
 18 45  1  0  0  0
 19 24  1  0  0  0
 19 20  1  0  0  0
 20 21  2  0  0  0
 20 46  1  0  0  0
 21 22  1  0  0  0
 21 47  1  0  0  0
 22 23  2  0  0  0
 22 48  1  0  0  0
 23 24  1  0  0  0
 23 49  1  0  0  0
 25 26  1  0  0  0
 25 50  1  0  0  0
 25 51  1  0  0  0
 26 27  1  0  0  0
 26 52  1  0  0  0
 26 53  1  0  0  0
 27 28  1  0  0  0
 28 34  2  0  0  0
 28 29  1  0  0  0
 29 30  2  0  0  0
 29 54  1  0  0  0
 30 31  1  0  0  0
 30 55  1  0  0  0
 31 32  1  0  0  0
 31 33  2  0  0  0
 33 34  1  0  0  0
 33 56  1  0  0  0
M  END
> <r_i_docking_score>
-7.03749946548325

$$$$
ligprep_5.maegz:29
                    3D
 Schrodinger Suite 2020-4.
 57 60  0  0  1  0            999 V2000
    3.1087   -6.7050   23.6666 C   0  0  0  0  0  0
    4.3319   -5.9092   23.6374 N   0  0  0  0  0  0
    4.9111   -5.8596   24.9802 C   0  0  0  0  0  0
    5.2823   -6.3891   22.6333 C   0  0  0  0  0  0
    6.2488   -5.3018   22.1239 C   0  0  0  0  0  0
    7.2743   -5.6527   21.5451 O   0  0  0  0  0  0
    5.8882   -4.0103   22.2396 N   0  0  0  0  0  0
    6.7262   -2.8518   21.9039 C   0  0  0  0  0  0
    6.9594   -1.8934   23.1253 C   0  0  1  0  0  0
    8.1071   -0.8894   22.7515 C   0  0  0  0  0  0
    8.3429   -0.6333   21.5664 O   0  0  0  0  0  0
    8.8221   -0.3377   23.7609 N   0  0  0  0  0  0
   10.0065    0.3956   23.5867 C   0  0  0  0  0  0
   10.0448    1.7304   24.0000 C   0  0  0  0  0  0
   11.1290    2.5302   23.8551 N   0  0  0  0  0  0
   12.2352    1.9915   23.2885 C   0  0  0  0  0  0
   12.3475    0.6461   22.8718 C   0  0  0  0  0  0
   13.5315    0.1116   22.3091 C   0  0  0  0  0  0
   13.5691   -1.2227   21.9072 C   0  0  0  0  0  0
   12.4713   -2.0450   22.0887 C   0  0  0  0  0  0
   11.3013   -1.5485   22.6427 C   0  0  0  0  0  0
   11.1961   -0.1858   23.0333 C   0  0  0  0  0  0
    5.6622   -1.0676   23.4101 C   0  0  0  0  0  0
    5.4915   -0.6821   24.8860 C   0  0  0  0  0  0
    5.4848   -1.8670   25.6789 O   0  0  0  0  0  0
    6.6152   -2.6469   25.5509 C   0  0  0  0  0  0
    6.9306   -3.4237   26.6607 C   0  0  0  0  0  0
    8.0658   -4.2312   26.6567 C   0  0  0  0  0  0
    8.8654   -4.2835   25.5183 C   0  0  0  0  0  0
   10.2927   -5.2529   25.5087 Cl  0  0  0  0  0  0
    8.5090   -3.5549   24.3846 C   0  0  0  0  0  0
    7.3842   -2.7109   24.3743 C   0  0  0  0  0  0
    2.3961   -6.3004   24.3873 H   0  0  0  0  0  0
    2.6218   -6.6985   22.6900 H   0  0  0  0  0  0
    3.3124   -7.7431   23.9328 H   0  0  0  0  0  0
    4.2279   -5.3764   25.6811 H   0  0  0  0  0  0
    5.1466   -6.8556   25.3585 H   0  0  0  0  0  0
    5.8367   -5.2870   24.9778 H   0  0  0  0  0  0
    4.7711   -6.7337   21.7401 H   0  0  0  0  0  0
    5.8587   -7.2432   22.9953 H   0  0  0  0  0  0
    5.0118   -3.8234   22.7066 H   0  0  0  0  0  0
    6.2499   -2.3173   21.0791 H   0  0  0  0  0  0
    7.6882   -3.1905   21.5069 H   0  0  0  0  0  0
    8.4624   -0.4162   24.6991 H   0  0  0  0  0  0
    9.1746    2.1960   24.4403 H   0  0  0  0  0  0
   13.0809    2.6533   23.1676 H   0  0  0  0  0  0
   14.3880    0.7537   22.1684 H   0  0  0  0  0  0
   14.4359   -1.6521   21.4429 H   0  0  0  0  0  0
   12.5174   -3.0775   21.7870 H   0  0  0  0  0  0
   10.4650   -2.2127   22.7539 H   0  0  0  0  0  0
    4.7839   -1.6561   23.1466 H   0  0  0  0  0  0
    5.5816   -0.1782   22.7783 H   0  0  0  0  0  0
    4.5539   -0.1484   25.0364 H   0  0  0  0  0  0
    6.2971   -0.0177   25.2017 H   0  0  0  0  0  0
    6.2726   -3.3955   27.5089 H   0  0  0  0  0  0
    8.3214   -4.8211   27.5259 H   0  0  0  0  0  0
    9.1107   -3.6546   23.4948 H   0  0  0  0  0  0
  1  2  1  0  0  0
  1 33  1  0  0  0
  1 34  1  0  0  0
  1 35  1  0  0  0
  2  3  1  0  0  0
  2  4  1  0  0  0
  3 36  1  0  0  0
  3 37  1  0  0  0
  3 38  1  0  0  0
  4  5  1  0  0  0
  4 39  1  0  0  0
  4 40  1  0  0  0
  5  6  2  0  0  0
  5  7  1  0  0  0
  7  8  1  0  0  0
  7 41  1  0  0  0
  8  9  1  0  0  0
  8 42  1  0  0  0
  8 43  1  0  0  0
  9 32  1  0  0  0
  9 10  1  0  0  0
  9 23  1  0  0  0
 10 11  2  0  0  0
 10 12  1  0  0  0
 12 13  1  0  0  0
 12 44  1  0  0  0
 13 22  2  0  0  0
 13 14  1  0  0  0
 14 15  2  0  0  0
 14 45  1  0  0  0
 15 16  1  0  0  0
 16 17  2  0  0  0
 16 46  1  0  0  0
 17 22  1  0  0  0
 17 18  1  0  0  0
 18 19  2  0  0  0
 18 47  1  0  0  0
 19 20  1  0  0  0
 19 48  1  0  0  0
 20 21  2  0  0  0
 20 49  1  0  0  0
 21 22  1  0  0  0
 21 50  1  0  0  0
 23 24  1  0  0  0
 23 51  1  0  0  0
 23 52  1  0  0  0
 24 25  1  0  0  0
 24 53  1  0  0  0
 24 54  1  0  0  0
 25 26  1  0  0  0
 26 32  2  0  0  0
 26 27  1  0  0  0
 27 28  2  0  0  0
 27 55  1  0  0  0
 28 29  1  0  0  0
 28 56  1  0  0  0
 29 30  1  0  0  0
 29 31  2  0  0  0
 31 32  1  0  0  0
 31 57  1  0  0  0
M  END
> <r_i_docking_score>
-6.04649088910418

$$$$
ligprep_5.maegz:30
                    3D
 Schrodinger Suite 2020-4.
 46 49  0  0  1  0            999 V2000
    7.5871   -5.5981   23.9184 C   0  0  0  0  0  0
    7.5591   -4.1872   24.0851 O   0  0  0  0  0  0
    8.7690   -3.5480   23.6803 C   0  0  0  0  0  0
    8.6440   -1.9907   23.5929 C   0  0  1  0  0  0
    7.6850   -1.6268   22.3966 C   0  0  0  0  0  0
    6.9437   -2.4813   21.9031 O   0  0  0  0  0  0
    7.6849   -0.3472   21.9489 N   0  0  0  0  0  0
    6.8696    0.1500   20.9120 C   0  0  0  0  0  0
    6.9348   -0.4178   19.6337 C   0  0  0  0  0  0
    6.1994    0.0022   18.5784 N   0  0  0  0  0  0
    5.3483    1.0321   18.7826 C   0  0  0  0  0  0
    5.1725    1.6883   20.0189 C   0  0  0  0  0  0
    4.2455    2.7456   20.1963 C   0  0  0  0  0  0
    4.1228    3.3669   21.4362 C   0  0  0  0  0  0
    4.9117    2.9666   22.5081 C   0  0  0  0  0  0
    5.8271    1.9281   22.3608 C   0  0  0  0  0  0
    5.9739    1.2497   21.1205 C   0  0  0  0  0  0
    8.0518   -1.4418   24.9267 C   0  0  0  0  0  0
    8.3368    0.0519   25.1578 C   0  0  0  0  0  0
    9.7295    0.3417   25.0998 O   0  0  0  0  0  0
   10.4214   -0.1853   24.0293 C   0  0  0  0  0  0
   11.6178    0.4676   23.7359 C   0  0  0  0  0  0
   12.4916   -0.0585   22.7885 C   0  0  0  0  0  0
   13.9696    0.7703   22.4503 Cl  0  0  0  0  0  0
   12.1764   -1.2631   22.1571 C   0  0  0  0  0  0
   13.3077   -2.0494   21.1074 Cl  0  0  0  0  0  0
   10.9412   -1.8664   22.3938 C   0  0  0  0  0  0
   10.0294   -1.3478   23.3300 C   0  0  0  0  0  0
    6.6292   -6.0301   24.2163 H   0  0  0  0  0  0
    7.7542   -5.8741   22.8767 H   0  0  0  0  0  0
    8.3697   -6.0515   24.5286 H   0  0  0  0  0  0
    9.0681   -3.9427   22.7091 H   0  0  0  0  0  0
    9.5590   -3.8193   24.3838 H   0  0  0  0  0  0
    8.2394    0.3283   22.4501 H   0  0  0  0  0  0
    7.5921   -1.2520   19.4357 H   0  0  0  0  0  0
    4.7715    1.3463   17.9246 H   0  0  0  0  0  0
    3.6530    3.0848   19.3582 H   0  0  0  0  0  0
    3.4269    4.1853   21.5558 H   0  0  0  0  0  0
    4.8114    3.4660   23.4606 H   0  0  0  0  0  0
    6.4137    1.6283   23.2111 H   0  0  0  0  0  0
    8.4868   -1.9866   25.7641 H   0  0  0  0  0  0
    6.9800   -1.6345   24.9894 H   0  0  0  0  0  0
    7.9581    0.3616   26.1335 H   0  0  0  0  0  0
    7.8206    0.6545   24.4156 H   0  0  0  0  0  0
   11.8821    1.3658   24.2734 H   0  0  0  0  0  0
   10.7094   -2.7682   21.8468 H   0  0  0  0  0  0
  1  2  1  0  0  0
  1 29  1  0  0  0
  1 30  1  0  0  0
  1 31  1  0  0  0
  2  3  1  0  0  0
  3  4  1  0  0  0
  3 32  1  0  0  0
  3 33  1  0  0  0
  4 28  1  0  0  0
  4  5  1  0  0  0
  4 18  1  0  0  0
  5  6  2  0  0  0
  5  7  1  0  0  0
  7  8  1  0  0  0
  7 34  1  0  0  0
  8 17  2  0  0  0
  8  9  1  0  0  0
  9 10  2  0  0  0
  9 35  1  0  0  0
 10 11  1  0  0  0
 11 12  2  0  0  0
 11 36  1  0  0  0
 12 17  1  0  0  0
 12 13  1  0  0  0
 13 14  2  0  0  0
 13 37  1  0  0  0
 14 15  1  0  0  0
 14 38  1  0  0  0
 15 16  2  0  0  0
 15 39  1  0  0  0
 16 17  1  0  0  0
 16 40  1  0  0  0
 18 19  1  0  0  0
 18 41  1  0  0  0
 18 42  1  0  0  0
 19 20  1  0  0  0
 19 43  1  0  0  0
 19 44  1  0  0  0
 20 21  1  0  0  0
 21 28  2  0  0  0
 21 22  1  0  0  0
 22 23  2  0  0  0
 22 45  1  0  0  0
 23 24  1  0  0  0
 23 25  1  0  0  0
 25 26  1  0  0  0
 25 27  2  0  0  0
 27 28  1  0  0  0
 27 46  1  0  0  0
M  END
> <r_i_docking_score>
-5.58216411660604

$$$$
ligprep_5.maegz:31
                    3D
 Schrodinger Suite 2020-4.
 43 46  0  0  1  0            999 V2000
    6.6649    0.5270   24.4622 C   0  0  0  0  0  0
    6.9932   -0.8414   24.2112 O   0  0  0  0  0  0
    7.2455   -1.2736   22.8555 C   0  0  2  0  0  0
    8.6387   -0.7444   22.3547 C   0  0  0  0  0  0
    8.7931   -0.4030   21.1770 O   0  0  0  0  0  0
    9.6379   -0.6694   23.2625 N   0  0  0  0  0  0
   10.9466   -0.2502   22.9638 C   0  0  0  0  0  0
   11.8983   -1.2107   22.6105 C   0  0  0  0  0  0
   13.1817   -0.9169   22.2915 N   0  0  0  0  0  0
   13.5524    0.3838   22.3126 C   0  0  0  0  0  0
   12.6998    1.4516   22.6629 C   0  0  0  0  0  0
   13.1230    2.8037   22.6410 C   0  0  0  0  0  0
   12.2351    3.8161   22.9912 C   0  0  0  0  0  0
   10.9265    3.5133   23.3498 C   0  0  0  0  0  0
   10.4779    2.1966   23.3552 C   0  0  0  0  0  0
   11.3499    1.1277   23.0082 C   0  0  0  0  0  0
    6.0979   -0.8129   21.9094 C   0  0  0  0  0  0
    5.9994   -1.6336   20.6122 C   0  0  0  0  0  0
    5.7682   -3.0067   20.9165 O   0  0  0  0  0  0
    6.5779   -3.5639   21.8928 C   0  0  0  0  0  0
    6.6137   -4.9617   21.8936 C   0  0  0  0  0  0
    5.9699   -5.6640   20.9350 F   0  0  0  0  0  0
    7.3095   -5.6419   22.8868 C   0  0  0  0  0  0
    7.9694   -4.9266   23.8814 C   0  0  0  0  0  0
    8.6222   -5.5792   24.8676 F   0  0  0  0  0  0
    7.9738   -3.5336   23.8514 C   0  0  0  0  0  0
    7.2867   -2.8134   22.8601 C   0  0  0  0  0  0
    6.5643    0.6772   25.5416 H   0  0  0  0  0  0
    7.4423    1.2042   24.1089 H   0  0  0  0  0  0
    5.7177    0.8141   24.0016 H   0  0  0  0  0  0
    9.4411   -0.9712   24.2065 H   0  0  0  0  0  0
   11.6308   -2.2575   22.5545 H   0  0  0  0  0  0
   14.5654    0.6073   22.0209 H   0  0  0  0  0  0
   14.1366    3.0430   22.3527 H   0  0  0  0  0  0
   12.5615    4.8453   22.9735 H   0  0  0  0  0  0
   10.2450    4.3132   23.6016 H   0  0  0  0  0  0
    9.4499    1.9890   23.6003 H   0  0  0  0  0  0
    6.1538    0.2515   21.6760 H   0  0  0  0  0  0
    5.1698   -0.9626   22.4499 H   0  0  0  0  0  0
    6.9055   -1.5444   20.0139 H   0  0  0  0  0  0
    5.1793   -1.2601   19.9960 H   0  0  0  0  0  0
    7.3282   -6.7217   22.8891 H   0  0  0  0  0  0
    8.4991   -3.0056   24.6317 H   0  0  0  0  0  0
  1  2  1  0  0  0
  1 28  1  0  0  0
  1 29  1  0  0  0
  1 30  1  0  0  0
  2  3  1  0  0  0
  3 27  1  0  0  0
  3  4  1  0  0  0
  3 17  1  0  0  0
  4  5  2  0  0  0
  4  6  1  0  0  0
  6  7  1  0  0  0
  6 31  1  0  0  0
  7 16  2  0  0  0
  7  8  1  0  0  0
  8  9  2  0  0  0
  8 32  1  0  0  0
  9 10  1  0  0  0
 10 11  2  0  0  0
 10 33  1  0  0  0
 11 16  1  0  0  0
 11 12  1  0  0  0
 12 13  2  0  0  0
 12 34  1  0  0  0
 13 14  1  0  0  0
 13 35  1  0  0  0
 14 15  2  0  0  0
 14 36  1  0  0  0
 15 16  1  0  0  0
 15 37  1  0  0  0
 17 18  1  0  0  0
 17 38  1  0  0  0
 17 39  1  0  0  0
 18 19  1  0  0  0
 18 40  1  0  0  0
 18 41  1  0  0  0
 19 20  1  0  0  0
 20 27  2  0  0  0
 20 21  1  0  0  0
 21 22  1  0  0  0
 21 23  2  0  0  0
 23 24  1  0  0  0
 23 42  1  0  0  0
 24 25  1  0  0  0
 24 26  2  0  0  0
 26 27  1  0  0  0
 26 43  1  0  0  0
M  END
> <r_i_docking_score>
-7.04322484885253

$$$$
ligprep_5.maegz:32
                    3D
 Schrodinger Suite 2020-4.
 43 46  0  0  1  0            999 V2000
    6.4880    0.7751   23.8018 C   0  0  0  0  0  0
    6.7596   -0.6234   23.6931 O   0  0  0  0  0  0
    7.1135   -1.1662   22.4044 C   0  0  2  0  0  0
    8.5990   -0.8195   22.0576 C   0  0  0  0  0  0
    8.9766   -0.8533   20.8862 O   0  0  0  0  0  0
    9.4277   -0.4968   23.0761 N   0  0  0  0  0  0
   10.7719   -0.1347   22.8967 C   0  0  0  0  0  0
   11.7137   -1.1155   22.5593 C   0  0  0  0  0  0
   13.0180   -0.8518   22.3080 N   0  0  0  0  0  0
   13.4145    0.4384   22.3785 C   0  0  0  0  0  0
   12.5717    1.5231   22.7077 C   0  0  0  0  0  0
   13.0208    2.8660   22.7082 C   0  0  0  0  0  0
   12.1449    3.8946   23.0417 C   0  0  0  0  0  0
   10.8220    3.6166   23.3667 C   0  0  0  0  0  0
   10.3459    2.3077   23.3456 C   0  0  0  0  0  0
   11.2045    1.2273   23.0006 C   0  0  0  0  0  0
    6.1650   -0.6399   21.2796 C   0  0  0  0  0  0
    6.0284   -1.5825   20.0771 C   0  0  0  0  0  0
    5.5785   -2.8685   20.5045 O   0  0  0  0  0  0
    6.3007   -3.4396   21.5328 C   0  0  0  0  0  0
    6.2090   -4.8278   21.6083 C   0  0  0  0  0  0
    6.8434   -5.5125   22.6382 C   0  0  0  0  0  0
    6.7339   -6.8558   22.7044 F   0  0  0  0  0  0
    7.5717   -4.8114   23.5978 C   0  0  0  0  0  0
    8.3710   -5.6483   24.8822 Cl  0  0  0  0  0  0
    7.6571   -3.4219   23.5202 C   0  0  0  0  0  0
    7.0265   -2.7011   22.4920 C   0  0  0  0  0  0
    6.4725    1.0589   24.8538 H   0  0  0  0  0  0
    7.2352    1.3878   23.2997 H   0  0  0  0  0  0
    5.5112    1.0211   23.3852 H   0  0  0  0  0  0
    9.0301   -0.4102   24.0008 H   0  0  0  0  0  0
   11.4171   -2.1505   22.4541 H   0  0  0  0  0  0
   14.4463    0.6319   22.1312 H   0  0  0  0  0  0
   14.0475    3.0866   22.4546 H   0  0  0  0  0  0
   12.4933    4.9173   23.0449 H   0  0  0  0  0  0
   10.1523    4.4264   23.6177 H   0  0  0  0  0  0
    9.3120    2.1165   23.5814 H   0  0  0  0  0  0
    6.4446    0.3611   20.9461 H   0  0  0  0  0  0
    5.1696   -0.5449   21.6877 H   0  0  0  0  0  0
    6.9766   -1.6496   19.5496 H   0  0  0  0  0  0
    5.3075   -1.1782   19.3668 H   0  0  0  0  0  0
    5.6425   -5.3783   20.8732 H   0  0  0  0  0  0
    8.2202   -2.8912   24.2743 H   0  0  0  0  0  0
  1  2  1  0  0  0
  1 28  1  0  0  0
  1 29  1  0  0  0
  1 30  1  0  0  0
  2  3  1  0  0  0
  3 27  1  0  0  0
  3  4  1  0  0  0
  3 17  1  0  0  0
  4  5  2  0  0  0
  4  6  1  0  0  0
  6  7  1  0  0  0
  6 31  1  0  0  0
  7 16  2  0  0  0
  7  8  1  0  0  0
  8  9  2  0  0  0
  8 32  1  0  0  0
  9 10  1  0  0  0
 10 11  2  0  0  0
 10 33  1  0  0  0
 11 16  1  0  0  0
 11 12  1  0  0  0
 12 13  2  0  0  0
 12 34  1  0  0  0
 13 14  1  0  0  0
 13 35  1  0  0  0
 14 15  2  0  0  0
 14 36  1  0  0  0
 15 16  1  0  0  0
 15 37  1  0  0  0
 17 18  1  0  0  0
 17 38  1  0  0  0
 17 39  1  0  0  0
 18 19  1  0  0  0
 18 40  1  0  0  0
 18 41  1  0  0  0
 19 20  1  0  0  0
 20 27  2  0  0  0
 20 21  1  0  0  0
 21 22  2  0  0  0
 21 42  1  0  0  0
 22 23  1  0  0  0
 22 24  1  0  0  0
 24 25  1  0  0  0
 24 26  2  0  0  0
 26 27  1  0  0  0
 26 43  1  0  0  0
M  END
> <r_i_docking_score>
-6.60108188101207

$$$$
ligprep_5.maegz:33
                    3D
 Schrodinger Suite 2020-4.
 68 72  0  0  1  0            999 V2000
    5.8689    0.0895   19.0087 O   0  0  0  0  0  0
    6.0579    0.9006   19.9165 C   0  0  0  0  0  0
    7.3688    0.7229   20.7451 C   0  0  0  0  0  0
    7.4147   -0.1453   22.0802 C   0  0  2  0  0  0
    6.8901   -1.6172   21.8785 C   0  0  0  0  0  0
    6.0767   -1.8902   20.9945 O   0  0  0  0  0  0
    7.2762   -2.5372   22.7917 N   0  0  0  0  0  0
    6.7178   -3.8171   22.9380 C   0  0  0  0  0  0
    6.5734   -4.6762   21.8389 C   0  0  0  0  0  0
    5.9850   -5.8895   21.9021 N   0  0  0  0  0  0
    5.5319   -6.2917   23.1080 C   0  0  0  0  0  0
    5.6407   -5.5481   24.3033 C   0  0  0  0  0  0
    5.1653   -6.0263   25.5477 C   0  0  0  0  0  0
    5.2995   -5.2432   26.6906 C   0  0  0  0  0  0
    5.8891   -3.9862   26.6210 C   0  0  0  0  0  0
    6.3644   -3.4896   25.4098 C   0  0  0  0  0  0
    6.2584   -4.2623   24.2188 C   0  0  0  0  0  0
    6.5143    0.4514   23.2072 C   0  0  0  0  0  0
    7.1893    1.6007   23.9729 C   0  0  0  0  0  0
    8.3561    1.1101   24.6104 O   0  0  0  0  0  0
    9.2569    0.4984   23.7656 C   0  0  0  0  0  0
   10.5751    0.5497   24.2052 C   0  0  0  0  0  0
   11.5694   -0.0971   23.4860 C   0  0  0  0  0  0
   11.2443   -0.8217   22.3452 C   0  0  0  0  0  0
   12.4923   -1.6738   21.5086 Cl  0  0  0  0  0  0
    9.9204   -0.8551   21.8951 C   0  0  0  0  0  0
    8.8892   -0.1886   22.5852 C   0  0  0  0  0  0
    5.2396    1.9796   20.0733 N   0  0  0  0  0  0
    5.3536    2.9650   21.1582 C   0  0  0  0  0  0
    4.0557    2.9556   22.0066 C   0  0  0  0  0  0
    2.8366    3.1211   21.2047 N   0  0  0  0  0  0
    1.6367    2.9423   22.0311 C   0  0  0  0  0  0
    1.3775    4.0985   23.0223 C   0  0  0  0  0  0
    0.5010    3.7001   24.2190 C   0  0  0  0  0  0
    1.1768    2.7474   25.0186 O   0  0  0  0  0  0
    2.7948    2.1471   20.1072 C   0  0  0  0  0  0
    4.0562    2.1756   19.2098 C   0  0  0  0  0  0
    8.0776    0.2821   20.0424 H   0  0  0  0  0  0
    7.7935    1.7085   20.9330 H   0  0  0  0  0  0
    7.8868   -2.2225   23.5307 H   0  0  0  0  0  0
    6.9127   -4.3791   20.8579 H   0  0  0  0  0  0
    5.0526   -7.2533   23.1272 H   0  0  0  0  0  0
    4.7029   -7.0007   25.6082 H   0  0  0  0  0  0
    4.9407   -5.6136   27.6391 H   0  0  0  0  0  0
    5.9756   -3.3880   27.5138 H   0  0  0  0  0  0
    6.8176   -2.5108   25.3814 H   0  0  0  0  0  0
    5.5648    0.7577   22.7926 H   0  0  0  0  0  0
    6.2500   -0.2920   23.9631 H   0  0  0  0  0  0
    7.4838    2.4175   23.3140 H   0  0  0  0  0  0
    6.5157    2.0135   24.7263 H   0  0  0  0  0  0
   10.8188    1.0881   25.1077 H   0  0  0  0  0  0
   12.5940   -0.0510   23.8202 H   0  0  0  0  0  0
    9.6938   -1.4065   20.9928 H   0  0  0  0  0  0
    5.4750    3.9471   20.7103 H   0  0  0  0  0  0
    6.2210    2.8204   21.7821 H   0  0  0  0  0  0
    4.1309    3.7502   22.7473 H   0  0  0  0  0  0
    3.9610    2.0159   22.5489 H   0  0  0  0  0  0
    1.6615    1.9768   22.5417 H   0  0  0  0  0  0
    0.7683    2.8902   21.3716 H   0  0  0  0  0  0
    0.8167    4.8566   22.4751 H   0  0  0  0  0  0
    2.2798    4.6237   23.3314 H   0  0  0  0  0  0
   -0.4161    3.2219   23.8703 H   0  0  0  0  0  0
    0.2196    4.5682   24.8169 H   0  0  0  0  0  0
    1.8974    3.1897   25.4741 H   0  0  0  0  0  0
    2.6944    1.1475   20.5329 H   0  0  0  0  0  0
    1.9098    2.3496   19.5080 H   0  0  0  0  0  0
    3.9717    1.4241   18.4238 H   0  0  0  0  0  0
    4.1293    3.1434   18.7100 H   0  0  0  0  0  0
  1  2  2  0  0  0
  2  3  1  0  0  0
  2 28  1  0  0  0
  3  4  1  0  0  0
  3 38  1  0  0  0
  3 39  1  0  0  0
  4 27  1  0  0  0
  4  5  1  0  0  0
  4 18  1  0  0  0
  5  6  2  0  0  0
  5  7  1  0  0  0
  7  8  1  0  0  0
  7 40  1  0  0  0
  8 17  2  0  0  0
  8  9  1  0  0  0
  9 10  2  0  0  0
  9 41  1  0  0  0
 10 11  1  0  0  0
 11 12  2  0  0  0
 11 42  1  0  0  0
 12 17  1  0  0  0
 12 13  1  0  0  0
 13 14  2  0  0  0
 13 43  1  0  0  0
 14 15  1  0  0  0
 14 44  1  0  0  0
 15 16  2  0  0  0
 15 45  1  0  0  0
 16 17  1  0  0  0
 16 46  1  0  0  0
 18 19  1  0  0  0
 18 47  1  0  0  0
 18 48  1  0  0  0
 19 20  1  0  0  0
 19 49  1  0  0  0
 19 50  1  0  0  0
 20 21  1  0  0  0
 21 27  2  0  0  0
 21 22  1  0  0  0
 22 23  2  0  0  0
 22 51  1  0  0  0
 23 24  1  0  0  0
 23 52  1  0  0  0
 24 25  1  0  0  0
 24 26  2  0  0  0
 26 27  1  0  0  0
 26 53  1  0  0  0
 28 37  1  0  0  0
 28 29  1  0  0  0
 29 30  1  0  0  0
 29 54  1  0  0  0
 29 55  1  0  0  0
 30 31  1  0  0  0
 30 56  1  0  0  0
 30 57  1  0  0  0
 31 32  1  0  0  0
 31 36  1  0  0  0
 32 33  1  0  0  0
 32 58  1  0  0  0
 32 59  1  0  0  0
 33 34  1  0  0  0
 33 60  1  0  0  0
 33 61  1  0  0  0
 34 35  1  0  0  0
 34 62  1  0  0  0
 34 63  1  0  0  0
 35 64  1  0  0  0
 36 37  1  0  0  0
 36 65  1  0  0  0
 36 66  1  0  0  0
 37 67  1  0  0  0
 37 68  1  0  0  0
M  END
> <r_i_docking_score>
-4.4396151943938

$$$$
ligprep_5.maegz:34
                    3D
 Schrodinger Suite 2020-4.
 68 72  0  0  1  0            999 V2000
    4.9421   -1.0272   25.1152 O   0  0  0  0  0  0
    5.6575   -2.0293   25.0887 C   0  0  0  0  0  0
    7.1738   -1.8578   24.8277 C   0  0  0  0  0  0
    7.7204   -0.3932   24.5977 C   0  0  2  0  0  0
    9.2539   -0.4712   24.2598 C   0  0  0  0  0  0
    9.8582   -1.5452   24.3070 O   0  0  0  0  0  0
    9.8342    0.7058   23.9269 N   0  0  0  0  0  0
   11.1195    0.9949   23.4283 C   0  0  0  0  0  0
   12.0248    0.0067   23.0052 C   0  0  0  0  0  0
   13.2373    0.2693   22.4693 N   0  0  0  0  0  0
   13.5745    1.5647   22.3080 C   0  0  0  0  0  0
   12.7690    2.6603   22.6764 C   0  0  0  0  0  0
   13.1704    4.0021   22.4682 C   0  0  0  0  0  0
   12.3482    5.0459   22.8765 C   0  0  0  0  0  0
   11.1217    4.7837   23.4761 C   0  0  0  0  0  0
   10.6895    3.4728   23.6695 C   0  0  0  0  0  0
   11.5028    2.3702   23.2715 C   0  0  0  0  0  0
    7.5696    0.4729   25.9107 C   0  0  0  0  0  0
    6.6537    1.7030   25.7655 C   0  0  0  0  0  0
    6.9478    2.4179   24.5706 O   0  0  0  0  0  0
    6.7439    1.6706   23.4335 C   0  0  0  0  0  0
    6.2397    2.3601   22.3309 C   0  0  0  0  0  0
    6.0461    1.6924   21.1254 C   0  0  0  0  0  0
    6.3710    0.3425   21.0231 C   0  0  0  0  0  0
    6.1486   -0.4818   19.5245 Cl  0  0  0  0  0  0
    6.8786   -0.3405   22.1295 C   0  0  0  0  0  0
    7.0763    0.3037   23.3640 C   0  0  0  0  0  0
    5.1499   -3.2737   25.3060 N   0  0  0  0  0  0
    5.9572   -4.5112   25.2773 C   0  0  0  0  0  0
    5.3143   -5.4942   24.2683 C   0  0  0  0  0  0
    3.8879   -5.7380   24.5337 N   0  0  0  0  0  0
    3.3782   -6.6805   23.5227 C   0  0  0  0  0  0
    1.9876   -7.3312   23.7709 C   0  0  0  0  0  0
    1.0339   -6.4534   24.0830 F   0  0  0  0  0  0
    2.0831   -8.1821   24.7960 F   0  0  0  0  0  0
    1.5364   -8.0936   22.5012 C   0  0  0  0  0  0
    0.3660   -8.8649   22.7195 O   0  0  0  0  0  0
    3.1579   -4.4648   24.5128 C   0  0  0  0  0  0
    3.7047   -3.4560   25.5463 C   0  0  0  0  0  0
    7.6943   -2.2927   25.6815 H   0  0  0  0  0  0
    7.4189   -2.4781   23.9655 H   0  0  0  0  0  0
    9.2206    1.5049   23.9912 H   0  0  0  0  0  0
   11.7986   -1.0457   23.0640 H   0  0  0  0  0  0
   14.5484    1.7462   21.8804 H   0  0  0  0  0  0
   14.1160    4.2078   21.9850 H   0  0  0  0  0  0
   12.6611    6.0679   22.7214 H   0  0  0  0  0  0
   10.4890    5.6043   23.7814 H   0  0  0  0  0  0
    9.7258    3.3014   24.1262 H   0  0  0  0  0  0
    7.1841   -0.1348   26.7294 H   0  0  0  0  0  0
    8.5268    0.8306   26.2993 H   0  0  0  0  0  0
    5.6063    1.3925   25.7561 H   0  0  0  0  0  0
    6.7683    2.3701   26.6190 H   0  0  0  0  0  0
    5.9970    3.4100   22.4068 H   0  0  0  0  0  0
    5.6519    2.2250   20.2713 H   0  0  0  0  0  0
    7.1436   -1.3795   22.0150 H   0  0  0  0  0  0
    5.9541   -4.9663   26.2696 H   0  0  0  0  0  0
    6.9985   -4.3549   24.9990 H   0  0  0  0  0  0
    5.8615   -6.4382   24.2833 H   0  0  0  0  0  0
    5.4107   -5.0779   23.2620 H   0  0  0  0  0  0
    4.0813   -7.5129   23.5064 H   0  0  0  0  0  0
    3.4098   -6.2208   22.5334 H   0  0  0  0  0  0
    2.3200   -8.7566   22.1428 H   0  0  0  0  0  0
    1.3346   -7.3904   21.6928 H   0  0  0  0  0  0
    0.4987   -9.4067   23.5039 H   0  0  0  0  0  0
    3.2512   -4.0526   23.5077 H   0  0  0  0  0  0
    2.0990   -4.6035   24.7139 H   0  0  0  0  0  0
    3.1369   -2.5278   25.4609 H   0  0  0  0  0  0
    3.5429   -3.8423   26.5530 H   0  0  0  0  0  0
  1  2  2  0  0  0
  2  3  1  0  0  0
  2 28  1  0  0  0
  3  4  1  0  0  0
  3 40  1  0  0  0
  3 41  1  0  0  0
  4 27  1  0  0  0
  4  5  1  0  0  0
  4 18  1  0  0  0
  5  6  2  0  0  0
  5  7  1  0  0  0
  7  8  1  0  0  0
  7 42  1  0  0  0
  8 17  2  0  0  0
  8  9  1  0  0  0
  9 10  2  0  0  0
  9 43  1  0  0  0
 10 11  1  0  0  0
 11 12  2  0  0  0
 11 44  1  0  0  0
 12 17  1  0  0  0
 12 13  1  0  0  0
 13 14  2  0  0  0
 13 45  1  0  0  0
 14 15  1  0  0  0
 14 46  1  0  0  0
 15 16  2  0  0  0
 15 47  1  0  0  0
 16 17  1  0  0  0
 16 48  1  0  0  0
 18 19  1  0  0  0
 18 49  1  0  0  0
 18 50  1  0  0  0
 19 20  1  0  0  0
 19 51  1  0  0  0
 19 52  1  0  0  0
 20 21  1  0  0  0
 21 27  2  0  0  0
 21 22  1  0  0  0
 22 23  2  0  0  0
 22 53  1  0  0  0
 23 24  1  0  0  0
 23 54  1  0  0  0
 24 25  1  0  0  0
 24 26  2  0  0  0
 26 27  1  0  0  0
 26 55  1  0  0  0
 28 39  1  0  0  0
 28 29  1  0  0  0
 29 30  1  0  0  0
 29 56  1  0  0  0
 29 57  1  0  0  0
 30 31  1  0  0  0
 30 58  1  0  0  0
 30 59  1  0  0  0
 31 32  1  0  0  0
 31 38  1  0  0  0
 32 33  1  0  0  0
 32 60  1  0  0  0
 32 61  1  0  0  0
 33 34  1  0  0  0
 33 35  1  0  0  0
 33 36  1  0  0  0
 36 37  1  0  0  0
 36 62  1  0  0  0
 36 63  1  0  0  0
 37 64  1  0  0  0
 38 39  1  0  0  0
 38 65  1  0  0  0
 38 66  1  0  0  0
 39 67  1  0  0  0
 39 68  1  0  0  0
M  END
> <r_i_docking_score>
-5.40309651602421

$$$$
ligprep_5.maegz:35
                    3D
 Schrodinger Suite 2020-4.
 63 65  0  0  1  0            999 V2000
   13.8763    2.1088   22.3076 C   0  0  0  0  0  0
   12.8087    2.1489   23.2443 O   0  0  0  0  0  0
   12.4485    0.8829   23.7772 C   0  0  0  0  0  0
   11.6317    0.0703   22.7640 C   0  0  0  0  0  0
   11.0162   -1.2148   23.3393 C   0  0  0  0  0  0
    9.8963   -1.6430   22.5128 N   0  0  0  0  0  0
    8.8161   -2.2963   22.9674 C   0  0  0  0  0  0
    8.7453   -2.7911   24.0938 O   0  0  0  0  0  0
    7.6067   -2.3535   21.9895 C   0  0  1  0  0  0
    6.5472   -3.3657   22.4021 C   0  0  0  0  0  0
    6.7861   -4.7324   22.1936 C   0  0  0  0  0  0
    5.8187   -5.6750   22.5432 C   0  0  0  0  0  0
    4.6273   -5.2220   23.1079 C   0  0  0  0  0  0
    4.3698   -3.9080   23.3264 N   0  0  0  0  0  0
    5.3192   -3.0038   22.9727 C   0  0  0  0  0  0
    7.0559   -1.0240   21.5126 N   0  0  0  0  0  0
    6.2452   -1.0181   20.3946 C   0  0  0  0  0  0
    5.9224   -2.0525   19.8082 O   0  0  0  0  0  0
    5.7613    0.2315   19.8318 C   0  0  0  0  0  0
    5.6911    0.4977   18.4679 C   0  0  0  0  0  0
    5.1697    1.7323   18.3070 O   0  0  0  0  0  0
    4.9150    2.1347   19.5730 C   0  0  0  0  0  0
    5.2361    1.2571   20.4931 N   0  0  0  0  0  0
    7.4504    0.1896   22.1396 C   0  0  0  0  0  0
    7.0842    0.4345   23.4647 C   0  0  0  0  0  0
    7.4720    1.6185   24.0868 C   0  0  0  0  0  0
    8.2269    2.5815   23.3965 C   0  0  0  0  0  0
    8.6635    3.9186   24.0484 C   0  0  0  0  0  0
    8.1686    4.0782   25.5101 C   0  0  0  0  0  0
    8.0947    5.1076   23.2345 C   0  0  0  0  0  0
   10.2082    4.0098   24.0711 C   0  0  0  0  0  0
    8.5927    2.3175   22.0693 C   0  0  0  0  0  0
    8.2214    1.1305   21.4485 C   0  0  0  0  0  0
   14.2063    3.1224   22.0823 H   0  0  0  0  0  0
   14.7312    1.5471   22.6838 H   0  0  0  0  0  0
   13.5696    1.6442   21.3772 H   0  0  0  0  0  0
   11.8433    1.0668   24.6651 H   0  0  0  0  0  0
   13.3364    0.3471   24.1084 H   0  0  0  0  0  0
   12.2515   -0.1915   21.9077 H   0  0  0  0  0  0
   10.8450    0.7208   22.3834 H   0  0  0  0  0  0
   10.6640   -1.0150   24.3550 H   0  0  0  0  0  0
   11.7630   -2.0054   23.4342 H   0  0  0  0  0  0
    9.8974   -1.3285   21.5531 H   0  0  0  0  0  0
    8.0970   -2.7635   21.1078 H   0  0  0  0  0  0
    7.7191   -5.0610   21.7571 H   0  0  0  0  0  0
    5.9882   -6.7301   22.3819 H   0  0  0  0  0  0
    3.8540   -5.9196   23.3948 H   0  0  0  0  0  0
    5.0711   -1.9673   23.1491 H   0  0  0  0  0  0
    5.9670   -0.0448   17.5736 H   0  0  0  0  0  0
    4.4936    3.1252   19.6814 H   0  0  0  0  0  0
    6.5009   -0.2890   24.0149 H   0  0  0  0  0  0
    7.1670    1.7666   25.1105 H   0  0  0  0  0  0
    8.4968    5.0239   25.9439 H   0  0  0  0  0  0
    8.5500    3.2867   26.1564 H   0  0  0  0  0  0
    7.0795    4.0636   25.5714 H   0  0  0  0  0  0
    8.4700    5.1268   22.2109 H   0  0  0  0  0  0
    7.0058    5.0665   23.1777 H   0  0  0  0  0  0
    8.3597    6.0664   23.6822 H   0  0  0  0  0  0
   10.6395    3.9713   23.0698 H   0  0  0  0  0  0
   10.5506    4.9408   24.5249 H   0  0  0  0  0  0
   10.6438    3.1914   24.6448 H   0  0  0  0  0  0
    9.1702    3.0362   21.5081 H   0  0  0  0  0  0
    8.5116    0.9468   20.4253 H   0  0  0  0  0  0
  1  2  1  0  0  0
  1 34  1  0  0  0
  1 35  1  0  0  0
  1 36  1  0  0  0
  2  3  1  0  0  0
  3  4  1  0  0  0
  3 37  1  0  0  0
  3 38  1  0  0  0
  4  5  1  0  0  0
  4 39  1  0  0  0
  4 40  1  0  0  0
  5  6  1  0  0  0
  5 41  1  0  0  0
  5 42  1  0  0  0
  6  7  1  0  0  0
  6 43  1  0  0  0
  7  8  2  0  0  0
  7  9  1  0  0  0
  9 10  1  0  0  0
  9 16  1  0  0  0
  9 44  1  0  0  0
 10 15  2  0  0  0
 10 11  1  0  0  0
 11 12  2  0  0  0
 11 45  1  0  0  0
 12 13  1  0  0  0
 12 46  1  0  0  0
 13 14  2  0  0  0
 13 47  1  0  0  0
 14 15  1  0  0  0
 15 48  1  0  0  0
 16 17  1  0  0  0
 16 24  1  0  0  0
 17 18  2  0  0  0
 17 19  1  0  0  0
 19 23  1  0  0  0
 19 20  2  0  0  0
 20 21  1  0  0  0
 20 49  1  0  0  0
 21 22  1  0  0  0
 22 23  2  0  0  0
 22 50  1  0  0  0
 24 33  2  0  0  0
 24 25  1  0  0  0
 25 26  2  0  0  0
 25 51  1  0  0  0
 26 27  1  0  0  0
 26 52  1  0  0  0
 27 28  1  0  0  0
 27 32  2  0  0  0
 28 29  1  0  0  0
 28 30  1  0  0  0
 28 31  1  0  0  0
 29 53  1  0  0  0
 29 54  1  0  0  0
 29 55  1  0  0  0
 30 56  1  0  0  0
 30 57  1  0  0  0
 30 58  1  0  0  0
 31 59  1  0  0  0
 31 60  1  0  0  0
 31 61  1  0  0  0
 32 33  1  0  0  0
 32 62  1  0  0  0
 33 63  1  0  0  0
M  END
> <r_i_docking_score>
-4.66644459553137

$$$$
ligprep_5.maegz:36
                    3D
 Schrodinger Suite 2020-4.
 62 64  0  0  1  0            999 V2000
   10.0640   -4.8463   25.5089 C   0  0  0  0  0  0
    9.0954   -3.9600   24.9621 O   0  0  0  0  0  0
    8.0509   -3.5352   25.7189 C   0  0  0  0  0  0
    7.8450   -3.9066   26.8776 O   0  0  0  0  0  0
    7.0925   -2.5881   24.9746 C   0  0  1  0  0  0
    6.2580   -1.7178   25.9454 C   0  0  0  0  0  0
    7.7457   -1.7027   23.9800 N   0  0  0  0  0  0
    8.8196   -0.9003   24.1410 C   0  0  0  0  0  0
    9.5025   -0.8864   25.1660 O   0  0  0  0  0  0
    9.2017    0.0284   22.9508 C   0  0  1  0  0  0
    8.0259    0.4973   22.0987 C   0  0  0  0  0  0
    6.9483    1.2420   22.6041 C   0  0  0  0  0  0
    5.9281    1.6613   21.7489 C   0  0  0  0  0  0
    5.9908    1.2987   20.4035 C   0  0  0  0  0  0
    6.9968    0.5470   19.8936 N   0  0  0  0  0  0
    7.9818    0.1553   20.7402 C   0  0  0  0  0  0
   10.1378    1.1393   23.3412 N   0  0  0  0  0  0
   11.5168    1.0845   23.2234 C   0  0  0  0  0  0
   12.2413    2.0474   23.5069 O   0  0  0  0  0  0
   12.2075   -0.1010   22.7230 C   0  0  0  0  0  0
   13.5379   -0.0875   22.3076 C   0  0  0  0  0  0
   13.8832   -1.3308   21.9070 O   0  0  0  0  0  0
   12.7716   -2.0510   22.1683 C   0  0  0  0  0  0
   11.7989   -1.3639   22.7084 N   0  0  0  0  0  0
    9.5873    2.3528   23.8440 C   0  0  0  0  0  0
    9.6985    3.5292   23.0983 C   0  0  0  0  0  0
    9.1499    4.7194   23.5576 C   0  0  0  0  0  0
    8.4749    4.7645   24.7851 C   0  0  0  0  0  0
    7.8517    6.0723   25.3349 C   0  0  0  0  0  0
    8.4486    6.3929   26.7275 C   0  0  0  0  0  0
    6.3188    5.9009   25.4602 C   0  0  0  0  0  0
    8.1114    7.3055   24.4262 C   0  0  0  0  0  0
    8.3687    3.5798   25.5286 C   0  0  0  0  0  0
    8.9293    2.3882   25.0759 C   0  0  0  0  0  0
   10.9564   -4.8582   24.8837 H   0  0  0  0  0  0
   10.3702   -4.5304   26.5067 H   0  0  0  0  0  0
    9.6717   -5.8625   25.5756 H   0  0  0  0  0  0
    6.3974   -3.2181   24.4184 H   0  0  0  0  0  0
    5.6540   -2.3281   26.6189 H   0  0  0  0  0  0
    6.8954   -1.0807   26.5621 H   0  0  0  0  0  0
    5.5724   -1.0653   25.4031 H   0  0  0  0  0  0
    7.2082   -1.5511   23.1382 H   0  0  0  0  0  0
    9.7076   -0.6523   22.2806 H   0  0  0  0  0  0
    6.8985    1.5089   23.6482 H   0  0  0  0  0  0
    5.1008    2.2474   22.1215 H   0  0  0  0  0  0
    5.2202    1.6085   19.7113 H   0  0  0  0  0  0
    8.7582   -0.4559   20.3033 H   0  0  0  0  0  0
   14.2807    0.6908   22.1973 H   0  0  0  0  0  0
   12.8212   -3.1071   21.9563 H   0  0  0  0  0  0
   10.2177    3.5216   22.1536 H   0  0  0  0  0  0
    9.2641    5.5918   22.9333 H   0  0  0  0  0  0
    8.0578    7.3300   27.1258 H   0  0  0  0  0  0
    9.5349    6.4868   26.6828 H   0  0  0  0  0  0
    8.2195    5.6218   27.4623 H   0  0  0  0  0  0
    5.8662    5.6677   24.4948 H   0  0  0  0  0  0
    6.0482    5.0981   26.1469 H   0  0  0  0  0  0
    5.8403    6.8088   25.8300 H   0  0  0  0  0  0
    7.6763    7.1780   23.4337 H   0  0  0  0  0  0
    7.6718    8.2119   24.8445 H   0  0  0  0  0  0
    9.1782    7.5000   24.3012 H   0  0  0  0  0  0
    7.8582    3.5749   26.4801 H   0  0  0  0  0  0
    8.8454    1.5044   25.6902 H   0  0  0  0  0  0
  1  2  1  0  0  0
  1 35  1  0  0  0
  1 36  1  0  0  0
  1 37  1  0  0  0
  2  3  1  0  0  0
  3  4  2  0  0  0
  3  5  1  0  0  0
  5  6  1  0  0  0
  5  7  1  0  0  0
  5 38  1  0  0  0
  6 39  1  0  0  0
  6 40  1  0  0  0
  6 41  1  0  0  0
  7  8  1  0  0  0
  7 42  1  0  0  0
  8  9  2  0  0  0
  8 10  1  0  0  0
 10 11  1  0  0  0
 10 17  1  0  0  0
 10 43  1  0  0  0
 11 16  2  0  0  0
 11 12  1  0  0  0
 12 13  2  0  0  0
 12 44  1  0  0  0
 13 14  1  0  0  0
 13 45  1  0  0  0
 14 15  2  0  0  0
 14 46  1  0  0  0
 15 16  1  0  0  0
 16 47  1  0  0  0
 17 18  1  0  0  0
 17 25  1  0  0  0
 18 19  2  0  0  0
 18 20  1  0  0  0
 20 24  1  0  0  0
 20 21  2  0  0  0
 21 22  1  0  0  0
 21 48  1  0  0  0
 22 23  1  0  0  0
 23 24  2  0  0  0
 23 49  1  0  0  0
 25 34  2  0  0  0
 25 26  1  0  0  0
 26 27  2  0  0  0
 26 50  1  0  0  0
 27 28  1  0  0  0
 27 51  1  0  0  0
 28 29  1  0  0  0
 28 33  2  0  0  0
 29 30  1  0  0  0
 29 31  1  0  0  0
 29 32  1  0  0  0
 30 52  1  0  0  0
 30 53  1  0  0  0
 30 54  1  0  0  0
 31 55  1  0  0  0
 31 56  1  0  0  0
 31 57  1  0  0  0
 32 58  1  0  0  0
 32 59  1  0  0  0
 32 60  1  0  0  0
 33 34  1  0  0  0
 33 61  1  0  0  0
 34 62  1  0  0  0
M  END
> <r_i_docking_score>
-3.55386272252502

$$$$
ligprep_5.maegz:37
                    3D
 Schrodinger Suite 2020-4.
 69 72  0  0  1  0            999 V2000
   13.7754    5.1683   22.3993 C   0  0  0  0  0  0
   12.3636    5.2597   22.4888 O   0  0  0  0  0  0
   11.7656    5.6684   23.6245 C   0  0  0  0  0  0
   12.3395    5.9549   24.6790 O   0  0  0  0  0  0
   10.2347    5.7544   23.4623 C   0  0  2  0  0  0
    9.6184    6.9818   24.1637 C   0  0  0  0  0  0
    8.2137    6.5163   24.5437 C   0  0  0  0  0  0
    8.3878    5.0538   24.9645 C   0  0  1  0  0  0
    7.1608    4.2918   24.7566 N   0  0  0  0  0  0
    6.7023    3.3357   25.5813 C   0  0  0  0  0  0
    7.1646    3.1470   26.7065 O   0  0  0  0  0  0
    5.4999    2.4694   25.1047 C   0  0  1  0  0  0
    5.0280    2.7165   23.6787 C   0  0  0  0  0  0
    3.7131    3.1347   23.4363 C   0  0  0  0  0  0
    3.2816    3.3556   22.1269 C   0  0  0  0  0  0
    4.1863    3.1475   21.0852 C   0  0  0  0  0  0
    5.4659    2.7474   21.2873 N   0  0  0  0  0  0
    5.8680    2.5483   22.5657 C   0  0  0  0  0  0
    5.6654    0.9951   25.3348 N   0  0  0  0  0  0
    4.7075    0.3272   26.0682 C   0  0  0  0  0  0
    3.6827    0.8922   26.4661 O   0  0  0  0  0  0
    4.8355   -1.1010   26.3680 C   0  0  0  0  0  0
    3.7809   -1.9005   26.8097 C   0  0  0  0  0  0
    4.2459   -3.1486   27.0405 O   0  0  0  0  0  0
    5.5650   -3.0387   26.7631 C   0  0  0  0  0  0
    5.9434   -1.8354   26.4074 N   0  0  0  0  0  0
    6.7660    0.3346   24.7385 C   0  0  0  0  0  0
    6.5683   -0.3880   23.5596 C   0  0  0  0  0  0
    7.6499   -0.9886   22.9265 C   0  0  0  0  0  0
    8.9429   -0.8938   23.4674 C   0  0  0  0  0  0
   10.1748   -1.4952   22.7490 C   0  0  0  0  0  0
    9.7881   -2.4123   21.5653 C   0  0  0  0  0  0
   11.0182   -2.3532   23.7233 C   0  0  0  0  0  0
   11.0536   -0.3493   22.1971 C   0  0  0  0  0  0
    9.1160   -0.2037   24.6759 C   0  0  0  0  0  0
    8.0373    0.3952   25.3161 C   0  0  0  0  0  0
    9.5426    4.5197   24.0899 C   0  0  0  0  0  0
   14.0325    4.6023   21.5086 H   0  0  0  0  0  0
   14.2245    6.1583   22.3092 H   0  0  0  0  0  0
   14.2090    4.6577   23.2604 H   0  0  0  0  0  0
   10.0158    5.7895   22.3931 H   0  0  0  0  0  0
    9.5693    7.8496   23.5063 H   0  0  0  0  0  0
   10.1665    7.2816   25.0602 H   0  0  0  0  0  0
    7.5572    6.5898   23.6737 H   0  0  0  0  0  0
    7.7477    7.1196   25.3237 H   0  0  0  0  0  0
    8.7425    5.0698   25.9991 H   0  0  0  0  0  0
    6.7060    4.4071   23.8612 H   0  0  0  0  0  0
    4.7054    2.8522   25.7461 H   0  0  0  0  0  0
    3.0272    3.2855   24.2570 H   0  0  0  0  0  0
    2.2737    3.6852   21.9231 H   0  0  0  0  0  0
    3.9042    3.3336   20.0579 H   0  0  0  0  0  0
    6.8958    2.2385   22.6858 H   0  0  0  0  0  0
    2.7284   -1.7278   26.9806 H   0  0  0  0  0  0
    6.1599   -3.9306   26.8950 H   0  0  0  0  0  0
    5.5826   -0.4517   23.1166 H   0  0  0  0  0  0
    7.4567   -1.5079   22.0013 H   0  0  0  0  0  0
   10.6772   -2.8524   21.1173 H   0  0  0  0  0  0
    9.2796   -1.8682   20.7682 H   0  0  0  0  0  0
    9.1469   -3.2363   21.8849 H   0  0  0  0  0  0
   11.4710   -1.7478   24.5055 H   0  0  0  0  0  0
   10.4175   -3.1263   24.2041 H   0  0  0  0  0  0
   11.8408   -2.8545   23.2106 H   0  0  0  0  0  0
   11.4294    0.2952   22.9929 H   0  0  0  0  0  0
   11.9208   -0.7349   21.6586 H   0  0  0  0  0  0
   10.4940    0.2819   21.5061 H   0  0  0  0  0  0
   10.0930   -0.1091   25.1250 H   0  0  0  0  0  0
    8.2025    0.9170   26.2475 H   0  0  0  0  0  0
   10.1936    3.8636   24.6723 H   0  0  0  0  0  0
    9.1602    3.9069   23.2706 H   0  0  0  0  0  0
  1  2  1  0  0  0
  1 38  1  0  0  0
  1 39  1  0  0  0
  1 40  1  0  0  0
  2  3  1  0  0  0
  3  4  2  0  0  0
  3  5  1  0  0  0
  5  6  1  0  0  0
  5 37  1  0  0  0
  5 41  1  0  0  0
  6  7  1  0  0  0
  6 42  1  0  0  0
  6 43  1  0  0  0
  7  8  1  0  0  0
  7 44  1  0  0  0
  7 45  1  0  0  0
  8  9  1  0  0  0
  8 37  1  0  0  0
  8 46  1  0  0  0
  9 10  1  0  0  0
  9 47  1  0  0  0
 10 11  2  0  0  0
 10 12  1  0  0  0
 12 13  1  0  0  0
 12 19  1  0  0  0
 12 48  1  0  0  0
 13 18  2  0  0  0
 13 14  1  0  0  0
 14 15  2  0  0  0
 14 49  1  0  0  0
 15 16  1  0  0  0
 15 50  1  0  0  0
 16 17  2  0  0  0
 16 51  1  0  0  0
 17 18  1  0  0  0
 18 52  1  0  0  0
 19 20  1  0  0  0
 19 27  1  0  0  0
 20 21  2  0  0  0
 20 22  1  0  0  0
 22 26  1  0  0  0
 22 23  2  0  0  0
 23 24  1  0  0  0
 23 53  1  0  0  0
 24 25  1  0  0  0
 25 26  2  0  0  0
 25 54  1  0  0  0
 27 36  2  0  0  0
 27 28  1  0  0  0
 28 29  2  0  0  0
 28 55  1  0  0  0
 29 30  1  0  0  0
 29 56  1  0  0  0
 30 31  1  0  0  0
 30 35  2  0  0  0
 31 32  1  0  0  0
 31 33  1  0  0  0
 31 34  1  0  0  0
 32 57  1  0  0  0
 32 58  1  0  0  0
 32 59  1  0  0  0
 33 60  1  0  0  0
 33 61  1  0  0  0
 33 62  1  0  0  0
 34 63  1  0  0  0
 34 64  1  0  0  0
 34 65  1  0  0  0
 35 36  1  0  0  0
 35 66  1  0  0  0
 36 67  1  0  0  0
 37 68  1  0  0  0
 37 69  1  0  0  0
M  END
> <r_i_docking_score>
-1.30442513743207

$$$$
ligprep_5.maegz:38
                    3D
 Schrodinger Suite 2020-4.
 64 67  0  0  1  0            999 V2000
   12.6696    5.3539   22.4023 C   0  0  0  0  0  0
   11.4497    5.2806   23.3611 C   0  0  0  0  0  0
   11.9348    5.7472   24.7555 C   0  0  0  0  0  0
   10.3649    6.2688   22.8665 C   0  0  0  0  0  0
   10.8158    3.8692   23.4381 C   0  0  0  0  0  0
    9.6611    3.6943   24.2066 C   0  0  0  0  0  0
    8.9942    2.4806   24.2286 C   0  0  0  0  0  0
    9.4729    1.3796   23.5071 C   0  0  0  0  0  0
    8.8058    0.1093   23.5601 N   0  0  0  0  0  0
    9.5509   -0.9770   23.9825 C   0  0  0  0  0  0
   10.7303   -0.8792   24.3417 O   0  0  0  0  0  0
    8.9510   -2.2983   24.0843 C   0  0  0  0  0  0
    8.2200   -3.0018   23.1219 C   0  0  0  0  0  0
    7.9290   -4.2270   23.6150 O   0  0  0  0  0  0
    8.5313   -4.2232   24.8284 C   0  0  0  0  0  0
    9.1691   -3.1146   25.1085 N   0  0  0  0  0  0
    7.3173    0.0417   23.3423 C   0  0  1  0  0  0
    6.4290    0.5590   24.5282 C   0  0  0  0  0  0
    5.3601    1.1290   24.3255 O   0  0  0  0  0  0
    6.9095    0.3987   25.7759 N   0  0  0  0  0  0
    6.3358    1.0305   26.9681 C   0  0  0  0  0  0
    6.7695    0.3556   28.2802 C   0  0  0  0  0  0
    6.3036    1.1093   29.5413 C   0  0  0  0  0  0
    6.6720    2.4815   29.4566 O   0  0  0  0  0  0
    6.0302    3.1607   28.3819 C   0  0  0  0  0  0
    6.5071    2.5692   27.0444 C   0  0  0  0  0  0
    6.9728    0.4711   21.9066 C   0  0  0  0  0  0
    7.5205   -0.2470   20.8283 C   0  0  0  0  0  0
    7.1688    0.0535   19.5110 C   0  0  0  0  0  0
    6.2772    1.0990   19.2878 C   0  0  0  0  0  0
    5.7693    1.8520   20.2927 N   0  0  0  0  0  0
    6.1250    1.5434   21.5654 C   0  0  0  0  0  0
   10.6315    1.5498   22.7318 C   0  0  0  0  0  0
   11.3014    2.7728   22.7071 C   0  0  0  0  0  0
   13.1300    6.3441   22.4058 H   0  0  0  0  0  0
   12.3842    5.1298   21.3745 H   0  0  0  0  0  0
   13.4550    4.6563   22.6944 H   0  0  0  0  0  0
   11.1461    5.7070   25.5051 H   0  0  0  0  0  0
   12.7678    5.1471   25.1162 H   0  0  0  0  0  0
   12.2907    6.7776   24.7246 H   0  0  0  0  0  0
    9.5512    6.3897   23.5824 H   0  0  0  0  0  0
   10.7696    7.2576   22.7077 H   0  0  0  0  0  0
    9.9174    5.9505   21.9273 H   0  0  0  0  0  0
    9.2513    4.5131   24.7783 H   0  0  0  0  0  0
    8.1140    2.4354   24.8358 H   0  0  0  0  0  0
    7.8535   -2.8036   22.1267 H   0  0  0  0  0  0
    8.4536   -5.1298   25.4094 H   0  0  0  0  0  0
    6.9826   -0.9891   23.3873 H   0  0  0  0  0  0
    7.8096   -0.0417   25.8902 H   0  0  0  0  0  0
    5.2541    0.8648   26.9334 H   0  0  0  0  0  0
    6.3953   -0.6688   28.3066 H   0  0  0  0  0  0
    7.8609    0.3443   28.3081 H   0  0  0  0  0  0
    5.2256    1.0092   29.6788 H   0  0  0  0  0  0
    6.7690    0.6814   30.4294 H   0  0  0  0  0  0
    4.9439    3.0950   28.4726 H   0  0  0  0  0  0
    6.2826    4.2204   28.4343 H   0  0  0  0  0  0
    7.5662    2.8108   26.9557 H   0  0  0  0  0  0
    5.9873    3.0592   26.2205 H   0  0  0  0  0  0
    8.2236   -1.0444   20.9990 H   0  0  0  0  0  0
    7.5766   -0.5115   18.6845 H   0  0  0  0  0  0
    5.9661    1.3629   18.2868 H   0  0  0  0  0  0
    5.6954    2.2066   22.2990 H   0  0  0  0  0  0
   11.0226    0.7274   22.1503 H   0  0  0  0  0  0
   12.1794    2.8545   22.0847 H   0  0  0  0  0  0
  1  2  1  0  0  0
  1 35  1  0  0  0
  1 36  1  0  0  0
  1 37  1  0  0  0
  2  3  1  0  0  0
  2  4  1  0  0  0
  2  5  1  0  0  0
  3 38  1  0  0  0
  3 39  1  0  0  0
  3 40  1  0  0  0
  4 41  1  0  0  0
  4 42  1  0  0  0
  4 43  1  0  0  0
  5 34  2  0  0  0
  5  6  1  0  0  0
  6  7  2  0  0  0
  6 44  1  0  0  0
  7  8  1  0  0  0
  7 45  1  0  0  0
  8  9  1  0  0  0
  8 33  2  0  0  0
  9 10  1  0  0  0
  9 17  1  0  0  0
 10 11  2  0  0  0
 10 12  1  0  0  0
 12 16  1  0  0  0
 12 13  2  0  0  0
 13 14  1  0  0  0
 13 46  1  0  0  0
 14 15  1  0  0  0
 15 16  2  0  0  0
 15 47  1  0  0  0
 17 18  1  0  0  0
 17 27  1  0  0  0
 17 48  1  0  0  0
 18 19  2  0  0  0
 18 20  1  0  0  0
 20 21  1  0  0  0
 20 49  1  0  0  0
 21 26  1  0  0  0
 21 22  1  0  0  0
 21 50  1  0  0  0
 22 23  1  0  0  0
 22 51  1  0  0  0
 22 52  1  0  0  0
 23 24  1  0  0  0
 23 53  1  0  0  0
 23 54  1  0  0  0
 24 25  1  0  0  0
 25 26  1  0  0  0
 25 55  1  0  0  0
 25 56  1  0  0  0
 26 57  1  0  0  0
 26 58  1  0  0  0
 27 32  2  0  0  0
 27 28  1  0  0  0
 28 29  2  0  0  0
 28 59  1  0  0  0
 29 30  1  0  0  0
 29 60  1  0  0  0
 30 31  2  0  0  0
 30 61  1  0  0  0
 31 32  1  0  0  0
 32 62  1  0  0  0
 33 34  1  0  0  0
 33 63  1  0  0  0
 34 64  1  0  0  0
M  END
> <r_i_docking_score>
-4.10610161455303

$$$$
ligprep_5.maegz:39
                    3D
 Schrodinger Suite 2020-4.
 63 65  0  0  1  0            999 V2000
    6.4484   -6.1328   21.9454 C   0  0  0  0  0  0
    6.6204   -4.9420   22.7838 N   0  0  0  0  0  0
    7.5439   -5.1533   23.9007 C   0  0  0  0  0  0
    5.9548   -3.7837   22.5345 C   0  0  0  0  0  0
    5.2080   -3.6530   21.5605 O   0  0  0  0  0  0
    6.0497   -2.5933   23.5099 C   0  0  0  0  0  0
    6.7225   -1.5042   22.8114 N   0  0  0  0  0  0
    7.9942   -1.1175   23.0144 C   0  0  0  0  0  0
    8.7062   -1.6064   23.8926 O   0  0  0  0  0  0
    8.5992   -0.0486   22.0515 C   0  0  1  0  0  0
    7.5687    0.4729   21.0356 C   0  0  0  0  0  0
    6.5141    1.3498   21.3530 C   0  0  0  0  0  0
    5.5713    1.7041   20.3852 C   0  0  0  0  0  0
    5.6813    1.1473   19.1125 C   0  0  0  0  0  0
    6.6616    0.2739   18.7799 N   0  0  0  0  0  0
    7.5697   -0.0527   19.7336 C   0  0  0  0  0  0
    9.3661    1.0123   22.8026 N   0  0  0  0  0  0
   10.7431    1.0635   22.9644 C   0  0  0  0  0  0
   11.3104    2.0147   23.5217 O   0  0  0  0  0  0
   11.6234    0.0043   22.4847 C   0  0  0  0  0  0
   13.0014    0.1677   22.3080 C   0  0  0  0  0  0
   13.5347   -1.0070   21.9084 O   0  0  0  0  0  0
   12.4657   -1.8341   21.9151 C   0  0  0  0  0  0
   11.3447   -1.2796   22.3071 N   0  0  0  0  0  0
    8.6487    2.0470   23.4499 C   0  0  0  0  0  0
    8.0860    1.8196   24.7079 C   0  0  0  0  0  0
    7.4230    2.8500   25.3675 C   0  0  0  0  0  0
    7.3180    4.1255   24.7876 C   0  0  0  0  0  0
    6.5908    5.2978   25.4935 C   0  0  0  0  0  0
    7.5863    6.4590   25.7346 C   0  0  0  0  0  0
    5.9904    4.9086   26.8707 C   0  0  0  0  0  0
    5.4254    5.7985   24.6057 C   0  0  0  0  0  0
    7.9022    4.3398   23.5298 C   0  0  0  0  0  0
    8.5704    3.3158   22.8685 C   0  0  0  0  0  0
    5.7521   -5.9825   21.1191 H   0  0  0  0  0  0
    7.4065   -6.4318   21.5180 H   0  0  0  0  0  0
    6.0729   -6.9647   22.5423 H   0  0  0  0  0  0
    7.0360   -5.6530   24.7265 H   0  0  0  0  0  0
    8.3697   -5.7904   23.5871 H   0  0  0  0  0  0
    7.9944   -4.2337   24.2724 H   0  0  0  0  0  0
    6.4965   -2.8264   24.4747 H   0  0  0  0  0  0
    5.0354   -2.2600   23.7328 H   0  0  0  0  0  0
    6.2014   -1.0703   22.0613 H   0  0  0  0  0  0
    9.2984   -0.6136   21.4451 H   0  0  0  0  0  0
    6.3877    1.7430   22.3491 H   0  0  0  0  0  0
    4.7680    2.3884   20.6193 H   0  0  0  0  0  0
    4.9719    1.3975   18.3353 H   0  0  0  0  0  0
    8.3118   -0.7778   19.4286 H   0  0  0  0  0  0
   13.6740    1.0094   22.3958 H   0  0  0  0  0  0
   12.6492   -2.8529   21.6219 H   0  0  0  0  0  0
    8.1727    0.8522   25.1820 H   0  0  0  0  0  0
    7.0039    2.6320   26.3371 H   0  0  0  0  0  0
    7.1121    7.2944   26.2520 H   0  0  0  0  0  0
    7.9909    6.8558   24.8027 H   0  0  0  0  0  0
    8.4316    6.1373   26.3446 H   0  0  0  0  0  0
    5.2539    4.1088   26.7796 H   0  0  0  0  0  0
    6.7597    4.5773   27.5693 H   0  0  0  0  0  0
    5.4818    5.7528   27.3389 H   0  0  0  0  0  0
    4.7111    5.0001   24.3996 H   0  0  0  0  0  0
    4.8757    6.6107   25.0836 H   0  0  0  0  0  0
    5.7719    6.1784   23.6440 H   0  0  0  0  0  0
    7.8478    5.3075   23.0532 H   0  0  0  0  0  0
    9.0250    3.5094   21.9079 H   0  0  0  0  0  0
  1  2  1  0  0  0
  1 35  1  0  0  0
  1 36  1  0  0  0
  1 37  1  0  0  0
  2  3  1  0  0  0
  2  4  1  0  0  0
  3 38  1  0  0  0
  3 39  1  0  0  0
  3 40  1  0  0  0
  4  5  2  0  0  0
  4  6  1  0  0  0
  6  7  1  0  0  0
  6 41  1  0  0  0
  6 42  1  0  0  0
  7  8  1  0  0  0
  7 43  1  0  0  0
  8  9  2  0  0  0
  8 10  1  0  0  0
 10 11  1  0  0  0
 10 17  1  0  0  0
 10 44  1  0  0  0
 11 16  2  0  0  0
 11 12  1  0  0  0
 12 13  2  0  0  0
 12 45  1  0  0  0
 13 14  1  0  0  0
 13 46  1  0  0  0
 14 15  2  0  0  0
 14 47  1  0  0  0
 15 16  1  0  0  0
 16 48  1  0  0  0
 17 18  1  0  0  0
 17 25  1  0  0  0
 18 19  2  0  0  0
 18 20  1  0  0  0
 20 24  1  0  0  0
 20 21  2  0  0  0
 21 22  1  0  0  0
 21 49  1  0  0  0
 22 23  1  0  0  0
 23 24  2  0  0  0
 23 50  1  0  0  0
 25 34  2  0  0  0
 25 26  1  0  0  0
 26 27  2  0  0  0
 26 51  1  0  0  0
 27 28  1  0  0  0
 27 52  1  0  0  0
 28 29  1  0  0  0
 28 33  2  0  0  0
 29 30  1  0  0  0
 29 31  1  0  0  0
 29 32  1  0  0  0
 30 53  1  0  0  0
 30 54  1  0  0  0
 30 55  1  0  0  0
 31 56  1  0  0  0
 31 57  1  0  0  0
 31 58  1  0  0  0
 32 59  1  0  0  0
 32 60  1  0  0  0
 32 61  1  0  0  0
 33 34  1  0  0  0
 33 62  1  0  0  0
 34 63  1  0  0  0
M  END
> <r_i_docking_score>
-4.11696029682662

$$$$
ligprep_5.maegz:40
                    3D
 Schrodinger Suite 2020-4.
 60 62  0  0  1  0            999 V2000
   13.5712    1.7851   22.4165 C   0  0  0  0  0  0
   11.9360    2.5113   22.7128 S   0  0  0  0  0  0
   10.9655    1.0280   23.1110 C   0  0  0  0  0  0
   10.9574   -0.1145   22.0712 C   0  0  0  0  0  0
    9.9334   -1.1423   22.2396 N   0  0  0  0  0  0
    9.7754   -1.8891   23.3429 C   0  0  0  0  0  0
   10.5269   -1.7847   24.3078 O   0  0  0  0  0  0
    8.5496   -2.8593   23.3945 C   0  0  1  0  0  0
    8.3505   -3.5792   24.7324 C   0  0  0  0  0  0
    9.3781   -4.3744   25.2606 C   0  0  0  0  0  0
    9.1975   -5.0584   26.4602 C   0  0  0  0  0  0
    7.9692   -4.9523   27.1076 C   0  0  0  0  0  0
    6.9530   -4.1924   26.6326 N   0  0  0  0  0  0
    7.1544   -3.5225   25.4696 C   0  0  0  0  0  0
    7.2723   -2.3845   22.7414 N   0  0  0  0  0  0
    6.2744   -3.2376   22.3084 C   0  0  0  0  0  0
    5.1697   -2.8530   21.9139 O   0  0  0  0  0  0
    6.4617   -4.6716   22.3840 C   0  0  0  0  0  0
    5.4483   -5.5693   22.7086 C   0  0  0  0  0  0
    5.9699   -6.8128   22.7081 O   0  0  0  0  0  0
    7.2441   -6.6089   22.3083 C   0  0  0  0  0  0
    7.5504   -5.3595   22.0725 N   0  0  0  0  0  0
    6.9885   -0.9902   22.7338 C   0  0  0  0  0  0
    7.0403   -0.2710   23.9322 C   0  0  0  0  0  0
    6.9077    1.1119   23.9269 C   0  0  0  0  0  0
    6.7233    1.8090   22.7243 C   0  0  0  0  0  0
    6.6549    3.3557   22.6832 C   0  0  0  0  0  0
    6.4838    4.0042   24.0831 C   0  0  0  0  0  0
    5.4494    3.8213   21.8286 C   0  0  0  0  0  0
    7.9685    3.8925   22.0691 C   0  0  0  0  0  0
    6.6508    1.0761   21.5288 C   0  0  0  0  0  0
    6.7757   -0.3100   21.5294 C   0  0  0  0  0  0
   14.3140    2.5740   22.3022 H   0  0  0  0  0  0
   13.8694    1.1463   23.2467 H   0  0  0  0  0  0
   13.5716    1.1853   21.5079 H   0  0  0  0  0  0
    9.9324    1.3436   23.2602 H   0  0  0  0  0  0
   11.1960    0.6504   24.1070 H   0  0  0  0  0  0
   11.9496   -0.5545   21.9610 H   0  0  0  0  0  0
   10.7699    0.3461   21.1079 H   0  0  0  0  0  0
    9.2760   -1.2634   21.4818 H   0  0  0  0  0  0
    8.9520   -3.5805   22.6882 H   0  0  0  0  0  0
   10.3261   -4.4526   24.7485 H   0  0  0  0  0  0
    9.9970   -5.6527   26.8748 H   0  0  0  0  0  0
    7.7869   -5.4792   28.0325 H   0  0  0  0  0  0
    6.3113   -2.9372   25.1357 H   0  0  0  0  0  0
    4.4104   -5.4704   22.9915 H   0  0  0  0  0  0
    7.8685   -7.4865   22.2606 H   0  0  0  0  0  0
    7.2222   -0.7718   24.8710 H   0  0  0  0  0  0
    6.9809    1.6237   24.8733 H   0  0  0  0  0  0
    6.3843    5.0887   24.0112 H   0  0  0  0  0  0
    7.3418    3.8171   24.7299 H   0  0  0  0  0  0
    5.5925    3.6339   24.5913 H   0  0  0  0  0  0
    5.5474    3.5441   20.7785 H   0  0  0  0  0  0
    4.5131    3.3957   22.1922 H   0  0  0  0  0  0
    5.3392    4.9069   21.8451 H   0  0  0  0  0  0
    8.1884    3.4281   21.1082 H   0  0  0  0  0  0
    7.9306    4.9707   21.9078 H   0  0  0  0  0  0
    8.8238    3.6915   22.7154 H   0  0  0  0  0  0
    6.5209    1.5784   20.5820 H   0  0  0  0  0  0
    6.7435   -0.8477   20.5923 H   0  0  0  0  0  0
  1  2  1  0  0  0
  1 33  1  0  0  0
  1 34  1  0  0  0
  1 35  1  0  0  0
  2  3  1  0  0  0
  3  4  1  0  0  0
  3 36  1  0  0  0
  3 37  1  0  0  0
  4  5  1  0  0  0
  4 38  1  0  0  0
  4 39  1  0  0  0
  5  6  1  0  0  0
  5 40  1  0  0  0
  6  7  2  0  0  0
  6  8  1  0  0  0
  8  9  1  0  0  0
  8 15  1  0  0  0
  8 41  1  0  0  0
  9 14  2  0  0  0
  9 10  1  0  0  0
 10 11  2  0  0  0
 10 42  1  0  0  0
 11 12  1  0  0  0
 11 43  1  0  0  0
 12 13  2  0  0  0
 12 44  1  0  0  0
 13 14  1  0  0  0
 14 45  1  0  0  0
 15 16  1  0  0  0
 15 23  1  0  0  0
 16 17  2  0  0  0
 16 18  1  0  0  0
 18 22  1  0  0  0
 18 19  2  0  0  0
 19 20  1  0  0  0
 19 46  1  0  0  0
 20 21  1  0  0  0
 21 22  2  0  0  0
 21 47  1  0  0  0
 23 32  2  0  0  0
 23 24  1  0  0  0
 24 25  2  0  0  0
 24 48  1  0  0  0
 25 26  1  0  0  0
 25 49  1  0  0  0
 26 27  1  0  0  0
 26 31  2  0  0  0
 27 28  1  0  0  0
 27 29  1  0  0  0
 27 30  1  0  0  0
 28 50  1  0  0  0
 28 51  1  0  0  0
 28 52  1  0  0  0
 29 53  1  0  0  0
 29 54  1  0  0  0
 29 55  1  0  0  0
 30 56  1  0  0  0
 30 57  1  0  0  0
 30 58  1  0  0  0
 31 32  1  0  0  0
 31 59  1  0  0  0
 32 60  1  0  0  0
M  END
> <r_i_docking_score>
-4.72853806400262

$$$$
ligprep_5.maegz:41
                    3D
 Schrodinger Suite 2020-4.
 73 75  0  0  1  0            999 V2000
    2.7190    2.9768   24.0341 C   0  0  0  0  0  0
    3.0110    4.2173   23.1582 C   0  0  0  0  0  0
    1.7088    4.9768   22.8171 C   0  0  0  0  0  0
    3.9763    5.1494   23.9103 C   0  0  0  0  0  0
    3.7246    3.8785   21.9622 O   0  0  0  0  0  0
    3.3077    3.0034   21.0183 C   0  0  0  0  0  0
    2.2635    2.3472   21.0546 O   0  0  0  0  0  0
    4.2561    2.9766   20.0136 N   0  0  0  0  0  0
    4.1681    2.1016   18.8474 C   0  0  0  0  0  0
    5.2312    0.9879   18.7594 C   0  0  0  0  0  0
    5.5919    0.4301   20.0638 N   0  0  0  0  0  0
    6.7992    0.6492   20.6058 C   0  0  0  0  0  0
    7.7290    1.1461   19.9725 O   0  0  0  0  0  0
    6.9858    0.3120   22.1103 C   0  0  1  0  0  0
    6.5810   -1.0859   22.5648 C   0  0  0  0  0  0
    6.5514   -2.2008   21.7093 C   0  0  0  0  0  0
    6.1642   -3.4473   22.1981 C   0  0  0  0  0  0
    5.8046   -3.5502   23.5429 C   0  0  0  0  0  0
    5.8169   -2.4920   24.3942 N   0  0  0  0  0  0
    6.2086   -1.2906   23.8997 C   0  0  0  0  0  0
    8.2943    0.7903   22.6715 N   0  0  0  0  0  0
    9.4621    0.0866   22.4308 C   0  0  0  0  0  0
    9.4344   -1.0552   21.9602 O   0  0  0  0  0  0
   10.7915    0.6520   22.7040 C   0  0  0  0  0  0
   11.1824    1.9866   22.8784 C   0  0  0  0  0  0
   12.5243    2.0377   23.0341 O   0  0  0  0  0  0
   12.8924    0.7442   22.9202 C   0  0  0  0  0  0
   11.8991   -0.0856   22.7119 N   0  0  0  0  0  0
    8.2781    2.0693   23.2760 C   0  0  0  0  0  0
    7.9870    3.2096   22.5199 C   0  0  0  0  0  0
    8.0187    4.4661   23.1136 C   0  0  0  0  0  0
    8.3232    4.6132   24.4739 C   0  0  0  0  0  0
    8.4023    6.0364   25.0836 C   0  0  0  0  0  0
    9.4493    6.8814   24.3115 C   0  0  0  0  0  0
    8.8272    6.0399   26.5780 C   0  0  0  0  0  0
    7.0223    6.7270   24.9898 C   0  0  0  0  0  0
    8.5599    3.4555   25.2326 C   0  0  0  0  0  0
    8.5427    2.1943   24.6420 C   0  0  0  0  0  0
    3.6162    2.3640   24.1608 H   0  0  0  0  0  0
    2.3693    3.2614   25.0259 H   0  0  0  0  0  0
    1.9529    2.3479   23.5867 H   0  0  0  0  0  0
    1.9125    5.8380   22.1791 H   0  0  0  0  0  0
    0.9978    4.3450   22.2842 H   0  0  0  0  0  0
    1.2126    5.3415   23.7176 H   0  0  0  0  0  0
    4.2272    6.0285   23.3141 H   0  0  0  0  0  0
    3.5485    5.4993   24.8508 H   0  0  0  0  0  0
    4.9136    4.6413   24.1407 H   0  0  0  0  0  0
    4.9585    3.7098   20.0172 H   0  0  0  0  0  0
    4.3696    2.7997   18.0326 H   0  0  0  0  0  0
    3.1697    1.7033   18.7082 H   0  0  0  0  0  0
    6.0747    1.2916   18.1357 H   0  0  0  0  0  0
    4.7753    0.1409   18.2509 H   0  0  0  0  0  0
    4.8554    0.0098   20.6183 H   0  0  0  0  0  0
    6.2301    0.9735   22.5407 H   0  0  0  0  0  0
    6.8494   -2.1094   20.6753 H   0  0  0  0  0  0
    6.1620   -4.3141   21.5544 H   0  0  0  0  0  0
    5.5085   -4.4991   23.9631 H   0  0  0  0  0  0
    6.2116   -0.4669   24.5989 H   0  0  0  0  0  0
   10.6782    2.9412   22.8885 H   0  0  0  0  0  0
   13.9503    0.5368   22.9911 H   0  0  0  0  0  0
    7.7718    3.1459   21.4674 H   0  0  0  0  0  0
    7.8184    5.3283   22.4964 H   0  0  0  0  0  0
    9.5546    7.8789   24.7423 H   0  0  0  0  0  0
    9.1786    7.0225   23.2638 H   0  0  0  0  0  0
   10.4350    6.4141   24.3341 H   0  0  0  0  0  0
    8.1090    5.5074   27.2037 H   0  0  0  0  0  0
    9.8050    5.5802   26.7203 H   0  0  0  0  0  0
    8.8947    7.0547   26.9711 H   0  0  0  0  0  0
    6.2640    6.1704   25.5391 H   0  0  0  0  0  0
    7.0497    7.7359   25.4037 H   0  0  0  0  0  0
    6.6797    6.8177   23.9570 H   0  0  0  0  0  0
    8.7730    3.5069   26.2870 H   0  0  0  0  0  0
    8.7493    1.3223   25.2448 H   0  0  0  0  0  0
  1  2  1  0  0  0
  1 39  1  0  0  0
  1 40  1  0  0  0
  1 41  1  0  0  0
  2  3  1  0  0  0
  2  4  1  0  0  0
  2  5  1  0  0  0
  3 42  1  0  0  0
  3 43  1  0  0  0
  3 44  1  0  0  0
  4 45  1  0  0  0
  4 46  1  0  0  0
  4 47  1  0  0  0
  5  6  1  0  0  0
  6  7  2  0  0  0
  6  8  1  0  0  0
  8  9  1  0  0  0
  8 48  1  0  0  0
  9 10  1  0  0  0
  9 49  1  0  0  0
  9 50  1  0  0  0
 10 11  1  0  0  0
 10 51  1  0  0  0
 10 52  1  0  0  0
 11 12  1  0  0  0
 11 53  1  0  0  0
 12 13  2  0  0  0
 12 14  1  0  0  0
 14 15  1  0  0  0
 14 21  1  0  0  0
 14 54  1  0  0  0
 15 20  2  0  0  0
 15 16  1  0  0  0
 16 17  2  0  0  0
 16 55  1  0  0  0
 17 18  1  0  0  0
 17 56  1  0  0  0
 18 19  2  0  0  0
 18 57  1  0  0  0
 19 20  1  0  0  0
 20 58  1  0  0  0
 21 22  1  0  0  0
 21 29  1  0  0  0
 22 23  2  0  0  0
 22 24  1  0  0  0
 24 28  1  0  0  0
 24 25  2  0  0  0
 25 26  1  0  0  0
 25 59  1  0  0  0
 26 27  1  0  0  0
 27 28  2  0  0  0
 27 60  1  0  0  0
 29 38  2  0  0  0
 29 30  1  0  0  0
 30 31  2  0  0  0
 30 61  1  0  0  0
 31 32  1  0  0  0
 31 62  1  0  0  0
 32 33  1  0  0  0
 32 37  2  0  0  0
 33 34  1  0  0  0
 33 35  1  0  0  0
 33 36  1  0  0  0
 34 63  1  0  0  0
 34 64  1  0  0  0
 34 65  1  0  0  0
 35 66  1  0  0  0
 35 67  1  0  0  0
 35 68  1  0  0  0
 36 69  1  0  0  0
 36 70  1  0  0  0
 36 71  1  0  0  0
 37 38  1  0  0  0
 37 72  1  0  0  0
 38 73  1  0  0  0
M  END
> <r_i_docking_score>
-3.09972025824798

$$$$
ligprep_5.maegz:42
                    3D
 Schrodinger Suite 2020-4.
 69 72  0  0  1  0            999 V2000
   10.5953   -1.5006   21.8040 C   0  0  0  0  0  0
   11.2217   -0.7979   23.0236 C   0  0  0  0  0  0
   11.1499   -1.7617   24.2152 C   0  0  0  0  0  0
   12.7262   -0.5263   22.7341 C   0  0  0  0  0  0
   10.4305    0.5028   23.2837 C   0  0  0  0  0  0
    9.3273    0.5544   24.1529 C   0  0  0  0  0  0
    8.4911    1.6703   24.1781 C   0  0  0  0  0  0
    8.7464    2.7428   23.3188 C   0  0  0  0  0  0
    7.8330    3.8186   23.1710 N   0  0  0  0  0  0
    8.2452    5.0451   23.6535 C   0  0  0  0  0  0
    9.1669    5.1852   24.4660 O   0  0  0  0  0  0
    7.5851    6.2407   23.1626 C   0  0  0  0  0  0
    7.4011    7.4151   23.8867 C   0  0  0  0  0  0
    6.7716    8.3103   23.0903 O   0  0  0  0  0  0
    6.6693    7.6544   21.9093 C   0  0  0  0  0  0
    7.1862    6.4508   21.9137 N   0  0  0  0  0  0
    6.4739    3.5934   22.5399 C   0  0  1  0  0  0
    6.0955    2.1303   22.1724 C   0  0  0  0  0  0
    5.5704    1.4111   23.0199 O   0  0  0  0  0  0
    6.2892    1.7700   20.8903 N   0  0  0  0  0  0
    5.6995    0.6280   20.1625 C   0  0  0  0  0  0
    5.9720   -0.8142   20.6511 C   0  0  0  0  0  0
    5.6279   -1.7343   19.9083 O   0  0  0  0  0  0
    6.5052   -1.0030   21.8758 N   0  0  0  0  0  0
    6.8370   -2.1998   22.5410 C   0  0  0  0  0  0
    6.9521   -3.4525   21.9193 C   0  0  0  0  0  0
    7.3454   -4.5683   22.6558 C   0  0  0  0  0  0
    7.6393   -4.4455   24.0122 C   0  0  0  0  0  0
    7.5346   -3.2050   24.6574 C   0  0  0  0  0  0
    7.8885   -3.0644   26.0920 N   0  3  0  0  0  0
    8.2617   -4.0599   26.7056 O   0  0  0  0  0  0
    7.8088   -1.9536   26.6100 O   0  5  0  0  0  0
    7.1116   -2.0953   23.9077 C   0  0  0  0  0  0
    5.3387    4.2116   23.3453 C   0  0  0  0  0  0
    4.3256    4.9220   22.6883 C   0  0  0  0  0  0
    3.2842    5.4885   23.4232 C   0  0  0  0  0  0
    3.2787    5.3204   24.8082 C   0  0  0  0  0  0
    4.2397    4.6293   25.4709 N   0  0  0  0  0  0
    5.2458    4.0863   24.7398 C   0  0  0  0  0  0
    9.9087    2.7395   22.5515 C   0  0  0  0  0  0
   10.7458    1.6425   22.5453 C   0  0  0  0  0  0
   11.1565   -2.3886   21.5083 H   0  0  0  0  0  0
   10.5593   -0.8266   20.9487 H   0  0  0  0  0  0
    9.5715   -1.8179   21.9999 H   0  0  0  0  0  0
   11.5078   -1.2493   25.1057 H   0  0  0  0  0  0
   10.1412   -2.1232   24.4077 H   0  0  0  0  0  0
   11.7545   -2.6511   24.0393 H   0  0  0  0  0  0
   13.1780    0.1004   23.5037 H   0  0  0  0  0  0
   13.3010   -1.4508   22.6879 H   0  0  0  0  0  0
   12.8930   -0.0306   21.7806 H   0  0  0  0  0  0
    9.0701   -0.2815   24.7811 H   0  0  0  0  0  0
    7.6165    1.6690   24.8119 H   0  0  0  0  0  0
    7.6136    7.7167   24.9020 H   0  0  0  0  0  0
    6.2151    8.1919   21.0893 H   0  0  0  0  0  0
    6.5217    4.0878   21.5696 H   0  0  0  0  0  0
    6.7277    2.4578   20.2965 H   0  0  0  0  0  0
    4.6173    0.7656   20.1735 H   0  0  0  0  0  0
    5.9997    0.6977   19.1161 H   0  0  0  0  0  0
    6.5999   -0.1566   22.4236 H   0  0  0  0  0  0
    6.7696   -3.5813   20.8655 H   0  0  0  0  0  0
    7.4461   -5.5264   22.1669 H   0  0  0  0  0  0
    7.9632   -5.3218   24.5570 H   0  0  0  0  0  0
    7.0085   -1.1332   24.3896 H   0  0  0  0  0  0
    4.3527    5.0451   21.6133 H   0  0  0  0  0  0
    2.5038    6.0467   22.9280 H   0  0  0  0  0  0
    2.4898    5.7442   25.4115 H   0  0  0  0  0  0
    5.9905    3.5365   25.2955 H   0  0  0  0  0  0
   10.1516    3.5601   21.9080 H   0  0  0  0  0  0
   11.6103    1.6772   21.9082 H   0  0  0  0  0  0
  1  2  1  0  0  0
  1 42  1  0  0  0
  1 43  1  0  0  0
  1 44  1  0  0  0
  2  3  1  0  0  0
  2  4  1  0  0  0
  2  5  1  0  0  0
  3 45  1  0  0  0
  3 46  1  0  0  0
  3 47  1  0  0  0
  4 48  1  0  0  0
  4 49  1  0  0  0
  4 50  1  0  0  0
  5 41  2  0  0  0
  5  6  1  0  0  0
  6  7  2  0  0  0
  6 51  1  0  0  0
  7  8  1  0  0  0
  7 52  1  0  0  0
  8  9  1  0  0  0
  8 40  2  0  0  0
  9 10  1  0  0  0
  9 17  1  0  0  0
 10 11  2  0  0  0
 10 12  1  0  0  0
 12 16  1  0  0  0
 12 13  2  0  0  0
 13 14  1  0  0  0
 13 53  1  0  0  0
 14 15  1  0  0  0
 15 16  2  0  0  0
 15 54  1  0  0  0
 17 18  1  0  0  0
 17 34  1  0  0  0
 17 55  1  0  0  0
 18 19  2  0  0  0
 18 20  1  0  0  0
 20 21  1  0  0  0
 20 56  1  0  0  0
 21 22  1  0  0  0
 21 57  1  0  0  0
 21 58  1  0  0  0
 22 23  2  0  0  0
 22 24  1  0  0  0
 24 25  1  0  0  0
 24 59  1  0  0  0
 25 33  2  0  0  0
 25 26  1  0  0  0
 26 27  2  0  0  0
 26 60  1  0  0  0
 27 28  1  0  0  0
 27 61  1  0  0  0
 28 29  2  0  0  0
 28 62  1  0  0  0
 29 30  1  0  0  0
 29 33  1  0  0  0
 30 31  2  0  0  0
 30 32  1  0  0  0
 33 63  1  0  0  0
 34 39  2  0  0  0
 34 35  1  0  0  0
 35 36  2  0  0  0
 35 64  1  0  0  0
 36 37  1  0  0  0
 36 65  1  0  0  0
 37 38  2  0  0  0
 37 66  1  0  0  0
 38 39  1  0  0  0
 39 67  1  0  0  0
 40 41  1  0  0  0
 40 68  1  0  0  0
 41 69  1  0  0  0
M  CHG  2  30   1  32  -1
M  END
> <r_i_docking_score>
-3.05375303803785

$$$$
ligprep_5.maegz:43
                    3D
 Schrodinger Suite 2020-4.
 83 86  0  0  1  0            999 V2000
    6.3123    0.9037   18.4588 C   0  0  0  0  0  0
    7.3094    0.0982   19.0739 O   0  0  0  0  0  0
    7.3288   -0.0528   20.4112 C   0  0  0  0  0  0
    6.6075    0.5514   21.2055 O   0  0  0  0  0  0
    8.3905   -1.0831   20.8720 C   0  0  1  0  0  0
    9.6674   -0.4099   21.4159 C   0  0  0  0  0  0
   10.0655   -1.1515   22.6922 C   0  0  1  0  0  0
   10.4294   -0.2770   23.8113 N   0  0  0  0  0  0
    9.7770    0.7633   24.3617 C   0  0  0  0  0  0
   10.3696    1.5333   25.1079 O   0  0  0  0  0  0
    8.2627    1.0198   24.0800 C   0  0  1  0  0  0
    7.3371    0.1961   24.9730 C   0  0  0  0  0  0
    6.1115   -0.2737   24.4758 C   0  0  0  0  0  0
    5.2550   -1.0131   25.2900 C   0  0  0  0  0  0
    5.6556   -1.2870   26.5960 C   0  0  0  0  0  0
    6.8338   -0.8528   27.1080 N   0  0  0  0  0  0
    7.6475   -0.1232   26.3049 C   0  0  0  0  0  0
    7.8159    2.4548   23.8767 N   0  0  0  0  0  0
    8.5898    3.3674   23.1855 C   0  0  0  0  0  0
    9.6960    3.1153   22.7078 O   0  0  0  0  0  0
    8.0906    4.7046   22.9809 C   0  0  0  0  0  0
    8.1888    5.7636   23.8743 C   0  0  0  0  0  0
    7.5898    6.8383   23.3074 O   0  0  0  0  0  0
    7.1552    6.3611   22.1151 C   0  0  0  0  0  0
    7.4240    5.0945   21.9078 N   0  0  0  0  0  0
    6.5216    2.8356   24.3079 C   0  0  0  0  0  0
    5.4589    2.8724   23.4017 C   0  0  0  0  0  0
    4.1868    3.2224   23.8402 C   0  0  0  0  0  0
    3.9534    3.5395   25.1883 C   0  0  0  0  0  0
    2.5426    3.9082   25.7149 C   0  0  0  0  0  0
    1.4814    4.0326   24.5900 C   0  0  0  0  0  0
    2.5862    5.2727   26.4482 C   0  0  0  0  0  0
    2.0611    2.8155   26.6992 C   0  0  0  0  0  0
    5.0355    3.5037   26.0832 C   0  0  0  0  0  0
    6.3130    3.1649   25.6484 C   0  0  0  0  0  0
    8.9525   -2.1492   23.0136 C   0  0  0  0  0  0
    7.9293   -1.9671   21.9726 N   0  0  0  0  0  0
    6.7762   -2.7757   21.9090 C   0  0  0  0  0  0
    5.9560   -2.7831   20.9891 O   0  0  0  0  0  0
    6.6947   -3.5976   22.9996 O   0  0  0  0  0  0
    5.7720   -4.6852   23.1612 C   0  0  0  0  0  0
    6.1627   -5.2946   24.5211 C   0  0  0  0  0  0
    5.9600   -5.7460   22.0502 C   0  0  0  0  0  0
    4.3076   -4.1924   23.2228 C   0  0  0  0  0  0
    6.5786    1.1071   17.4212 H   0  0  0  0  0  0
    5.3475    0.3933   18.4685 H   0  0  0  0  0  0
    6.1945    1.8621   18.9675 H   0  0  0  0  0  0
    8.6775   -1.6529   19.9926 H   0  0  0  0  0  0
    9.5486    0.6649   21.5626 H   0  0  0  0  0  0
   10.4861   -0.5126   20.7080 H   0  0  0  0  0  0
   10.9314   -1.7816   22.4702 H   0  0  0  0  0  0
   11.3688   -0.4120   24.1539 H   0  0  0  0  0  0
    8.0973    0.6117   23.0930 H   0  0  0  0  0  0
    5.8061   -0.0517   23.4647 H   0  0  0  0  0  0
    4.3028   -1.3537   24.9122 H   0  0  0  0  0  0
    5.0232   -1.8589   27.2594 H   0  0  0  0  0  0
    8.5659    0.2162   26.7611 H   0  0  0  0  0  0
    8.6237    5.8918   24.8543 H   0  0  0  0  0  0
    6.6318    7.0515   21.4695 H   0  0  0  0  0  0
    5.6146    2.6268   22.3609 H   0  0  0  0  0  0
    3.3972    3.2343   23.1054 H   0  0  0  0  0  0
    0.5065    4.3179   24.9867 H   0  0  0  0  0  0
    1.3386    3.0914   24.0569 H   0  0  0  0  0  0
    1.7603    4.7919   23.8580 H   0  0  0  0  0  0
    3.2228    5.2493   27.3329 H   0  0  0  0  0  0
    2.9630    6.0632   25.7958 H   0  0  0  0  0  0
    1.5956    5.5780   26.7893 H   0  0  0  0  0  0
    2.7217    2.7203   27.5621 H   0  0  0  0  0  0
    1.0643    3.0325   27.0855 H   0  0  0  0  0  0
    2.0159    1.8376   26.2180 H   0  0  0  0  0  0
    4.8910    3.7316   27.1283 H   0  0  0  0  0  0
    7.1324    3.1337   26.3523 H   0  0  0  0  0  0
    9.3301   -3.1713   22.9487 H   0  0  0  0  0  0
    8.5445   -2.0108   24.0150 H   0  0  0  0  0  0
    6.0782   -4.5613   25.3244 H   0  0  0  0  0  0
    5.5274   -6.1424   24.7802 H   0  0  0  0  0  0
    7.1958   -5.6454   24.5187 H   0  0  0  0  0  0
    5.6663   -5.3728   21.0687 H   0  0  0  0  0  0
    7.0020   -6.0606   21.9761 H   0  0  0  0  0  0
    5.3648   -6.6373   22.2490 H   0  0  0  0  0  0
    3.9965   -3.6878   22.3104 H   0  0  0  0  0  0
    3.6181   -5.0216   23.3832 H   0  0  0  0  0  0
    4.1631   -3.4874   24.0408 H   0  0  0  0  0  0
  1  2  1  0  0  0
  1 45  1  0  0  0
  1 46  1  0  0  0
  1 47  1  0  0  0
  2  3  1  0  0  0
  3  4  2  0  0  0
  3  5  1  0  0  0
  5  6  1  0  0  0
  5 37  1  0  0  0
  5 48  1  0  0  0
  6  7  1  0  0  0
  6 49  1  0  0  0
  6 50  1  0  0  0
  7  8  1  0  0  0
  7 36  1  0  0  0
  7 51  1  0  0  0
  8  9  1  0  0  0
  8 52  1  0  0  0
  9 10  2  0  0  0
  9 11  1  0  0  0
 11 12  1  0  0  0
 11 18  1  0  0  0
 11 53  1  0  0  0
 12 17  2  0  0  0
 12 13  1  0  0  0
 13 14  2  0  0  0
 13 54  1  0  0  0
 14 15  1  0  0  0
 14 55  1  0  0  0
 15 16  2  0  0  0
 15 56  1  0  0  0
 16 17  1  0  0  0
 17 57  1  0  0  0
 18 19  1  0  0  0
 18 26  1  0  0  0
 19 20  2  0  0  0
 19 21  1  0  0  0
 21 25  1  0  0  0
 21 22  2  0  0  0
 22 23  1  0  0  0
 22 58  1  0  0  0
 23 24  1  0  0  0
 24 25  2  0  0  0
 24 59  1  0  0  0
 26 35  2  0  0  0
 26 27  1  0  0  0
 27 28  2  0  0  0
 27 60  1  0  0  0
 28 29  1  0  0  0
 28 61  1  0  0  0
 29 30  1  0  0  0
 29 34  2  0  0  0
 30 31  1  0  0  0
 30 32  1  0  0  0
 30 33  1  0  0  0
 31 62  1  0  0  0
 31 63  1  0  0  0
 31 64  1  0  0  0
 32 65  1  0  0  0
 32 66  1  0  0  0
 32 67  1  0  0  0
 33 68  1  0  0  0
 33 69  1  0  0  0
 33 70  1  0  0  0
 34 35  1  0  0  0
 34 71  1  0  0  0
 35 72  1  0  0  0
 36 37  1  0  0  0
 36 73  1  0  0  0
 36 74  1  0  0  0
 37 38  1  0  0  0
 38 39  2  0  0  0
 38 40  1  0  0  0
 40 41  1  0  0  0
 41 42  1  0  0  0
 41 43  1  0  0  0
 41 44  1  0  0  0
 42 75  1  0  0  0
 42 76  1  0  0  0
 42 77  1  0  0  0
 43 78  1  0  0  0
 43 79  1  0  0  0
 43 80  1  0  0  0
 44 81  1  0  0  0
 44 82  1  0  0  0
 44 83  1  0  0  0
M  END
> <r_i_docking_score>
-0.76236738562034

$$$$
ligprep_5.maegz:44
                    3D
 Schrodinger Suite 2020-4.
 83 86  0  0  1  0            999 V2000
    6.3123    0.9037   18.4588 C   0  0  0  0  0  0
    7.3094    0.0982   19.0739 O   0  0  0  0  0  0
    7.3288   -0.0528   20.4112 C   0  0  0  0  0  0
    6.6075    0.5514   21.2055 O   0  0  0  0  0  0
    8.3905   -1.0831   20.8720 C   0  0  1  0  0  0
    9.6674   -0.4099   21.4159 C   0  0  0  0  0  0
   10.0655   -1.1515   22.6922 C   0  0  1  0  0  0
   10.4294   -0.2770   23.8113 N   0  0  0  0  0  0
    9.7770    0.7633   24.3617 C   0  0  0  0  0  0
   10.3696    1.5333   25.1079 O   0  0  0  0  0  0
    8.2627    1.0198   24.0800 C   0  0  1  0  0  0
    7.3371    0.1961   24.9730 C   0  0  0  0  0  0
    6.1115   -0.2737   24.4758 C   0  0  0  0  0  0
    5.2550   -1.0131   25.2900 C   0  0  0  0  0  0
    5.6556   -1.2870   26.5960 C   0  0  0  0  0  0
    6.8338   -0.8528   27.1080 N   0  0  0  0  0  0
    7.6475   -0.1232   26.3049 C   0  0  0  0  0  0
    7.8159    2.4548   23.8767 N   0  0  0  0  0  0
    8.5898    3.3674   23.1855 C   0  0  0  0  0  0
    9.6960    3.1153   22.7078 O   0  0  0  0  0  0
    8.0906    4.7046   22.9809 C   0  0  0  0  0  0
    8.1888    5.7636   23.8743 C   0  0  0  0  0  0
    7.5898    6.8383   23.3074 O   0  0  0  0  0  0
    7.1552    6.3611   22.1151 C   0  0  0  0  0  0
    7.4240    5.0945   21.9078 N   0  0  0  0  0  0
    6.5216    2.8356   24.3079 C   0  0  0  0  0  0
    5.4589    2.8724   23.4017 C   0  0  0  0  0  0
    4.1868    3.2224   23.8402 C   0  0  0  0  0  0
    3.9534    3.5395   25.1883 C   0  0  0  0  0  0
    2.5426    3.9082   25.7149 C   0  0  0  0  0  0
    1.4814    4.0326   24.5900 C   0  0  0  0  0  0
    2.5862    5.2727   26.4482 C   0  0  0  0  0  0
    2.0611    2.8155   26.6992 C   0  0  0  0  0  0
    5.0355    3.5037   26.0832 C   0  0  0  0  0  0
    6.3130    3.1649   25.6484 C   0  0  0  0  0  0
    8.9525   -2.1492   23.0136 C   0  0  0  0  0  0
    7.9293   -1.9671   21.9726 N   0  0  0  0  0  0
    6.7762   -2.7757   21.9090 C   0  0  0  0  0  0
    5.9560   -2.7831   20.9891 O   0  0  0  0  0  0
    6.6947   -3.5976   22.9996 O   0  0  0  0  0  0
    5.7720   -4.6852   23.1612 C   0  0  0  0  0  0
    6.1627   -5.2946   24.5211 C   0  0  0  0  0  0
    5.9600   -5.7460   22.0502 C   0  0  0  0  0  0
    4.3076   -4.1924   23.2228 C   0  0  0  0  0  0
    6.5786    1.1071   17.4212 H   0  0  0  0  0  0
    5.3475    0.3933   18.4685 H   0  0  0  0  0  0
    6.1945    1.8621   18.9675 H   0  0  0  0  0  0
    8.6775   -1.6529   19.9926 H   0  0  0  0  0  0
    9.5486    0.6649   21.5626 H   0  0  0  0  0  0
   10.4861   -0.5126   20.7080 H   0  0  0  0  0  0
   10.9314   -1.7816   22.4702 H   0  0  0  0  0  0
   11.3688   -0.4120   24.1539 H   0  0  0  0  0  0
    8.0973    0.6117   23.0930 H   0  0  0  0  0  0
    5.8061   -0.0517   23.4647 H   0  0  0  0  0  0
    4.3028   -1.3537   24.9122 H   0  0  0  0  0  0
    5.0232   -1.8589   27.2594 H   0  0  0  0  0  0
    8.5659    0.2162   26.7611 H   0  0  0  0  0  0
    8.6237    5.8918   24.8543 H   0  0  0  0  0  0
    6.6318    7.0515   21.4695 H   0  0  0  0  0  0
    5.6146    2.6268   22.3609 H   0  0  0  0  0  0
    3.3972    3.2343   23.1054 H   0  0  0  0  0  0
    0.5065    4.3179   24.9867 H   0  0  0  0  0  0
    1.3386    3.0914   24.0569 H   0  0  0  0  0  0
    1.7603    4.7919   23.8580 H   0  0  0  0  0  0
    3.2228    5.2493   27.3329 H   0  0  0  0  0  0
    2.9630    6.0632   25.7958 H   0  0  0  0  0  0
    1.5956    5.5780   26.7893 H   0  0  0  0  0  0
    2.7217    2.7203   27.5621 H   0  0  0  0  0  0
    1.0643    3.0325   27.0855 H   0  0  0  0  0  0
    2.0159    1.8376   26.2180 H   0  0  0  0  0  0
    4.8910    3.7316   27.1283 H   0  0  0  0  0  0
    7.1324    3.1337   26.3523 H   0  0  0  0  0  0
    9.3301   -3.1713   22.9487 H   0  0  0  0  0  0
    8.5445   -2.0108   24.0150 H   0  0  0  0  0  0
    6.0782   -4.5613   25.3244 H   0  0  0  0  0  0
    5.5274   -6.1424   24.7802 H   0  0  0  0  0  0
    7.1958   -5.6454   24.5187 H   0  0  0  0  0  0
    5.6663   -5.3728   21.0687 H   0  0  0  0  0  0
    7.0020   -6.0606   21.9761 H   0  0  0  0  0  0
    5.3648   -6.6373   22.2490 H   0  0  0  0  0  0
    3.9965   -3.6878   22.3104 H   0  0  0  0  0  0
    3.6181   -5.0216   23.3832 H   0  0  0  0  0  0
    4.1631   -3.4874   24.0408 H   0  0  0  0  0  0
  1  2  1  0  0  0
  1 45  1  0  0  0
  1 46  1  0  0  0
  1 47  1  0  0  0
  2  3  1  0  0  0
  3  4  2  0  0  0
  3  5  1  0  0  0
  5  6  1  0  0  0
  5 37  1  0  0  0
  5 48  1  0  0  0
  6  7  1  0  0  0
  6 49  1  0  0  0
  6 50  1  0  0  0
  7  8  1  0  0  0
  7 36  1  0  0  0
  7 51  1  0  0  0
  8  9  1  0  0  0
  8 52  1  0  0  0
  9 10  2  0  0  0
  9 11  1  0  0  0
 11 12  1  0  0  0
 11 18  1  0  0  0
 11 53  1  0  0  0
 12 17  2  0  0  0
 12 13  1  0  0  0
 13 14  2  0  0  0
 13 54  1  0  0  0
 14 15  1  0  0  0
 14 55  1  0  0  0
 15 16  2  0  0  0
 15 56  1  0  0  0
 16 17  1  0  0  0
 17 57  1  0  0  0
 18 19  1  0  0  0
 18 26  1  0  0  0
 19 20  2  0  0  0
 19 21  1  0  0  0
 21 25  1  0  0  0
 21 22  2  0  0  0
 22 23  1  0  0  0
 22 58  1  0  0  0
 23 24  1  0  0  0
 24 25  2  0  0  0
 24 59  1  0  0  0
 26 35  2  0  0  0
 26 27  1  0  0  0
 27 28  2  0  0  0
 27 60  1  0  0  0
 28 29  1  0  0  0
 28 61  1  0  0  0
 29 30  1  0  0  0
 29 34  2  0  0  0
 30 31  1  0  0  0
 30 32  1  0  0  0
 30 33  1  0  0  0
 31 62  1  0  0  0
 31 63  1  0  0  0
 31 64  1  0  0  0
 32 65  1  0  0  0
 32 66  1  0  0  0
 32 67  1  0  0  0
 33 68  1  0  0  0
 33 69  1  0  0  0
 33 70  1  0  0  0
 34 35  1  0  0  0
 34 71  1  0  0  0
 35 72  1  0  0  0
 36 37  1  0  0  0
 36 73  1  0  0  0
 36 74  1  0  0  0
 37 38  1  0  0  0
 38 39  2  0  0  0
 38 40  1  0  0  0
 40 41  1  0  0  0
 41 42  1  0  0  0
 41 43  1  0  0  0
 41 44  1  0  0  0
 42 75  1  0  0  0
 42 76  1  0  0  0
 42 77  1  0  0  0
 43 78  1  0  0  0
 43 79  1  0  0  0
 43 80  1  0  0  0
 44 81  1  0  0  0
 44 82  1  0  0  0
 44 83  1  0  0  0
M  END
> <r_i_docking_score>
-0.76236738562034

$$$$
ligprep_5.maegz:46
                    3D
 Schrodinger Suite 2020-4.
 64 67  0  0  1  0            999 V2000
    9.5186    6.0964   25.5045 C   0  0  0  0  0  0
    9.7200    5.8386   23.9925 C   0  0  0  0  0  0
    9.0425    7.0043   23.2346 C   0  0  0  0  0  0
   11.2318    5.8911   23.6479 C   0  0  0  0  0  0
    9.1328    4.4552   23.6269 C   0  0  0  0  0  0
    9.7661    3.3014   24.1005 C   0  0  0  0  0  0
    9.2608    2.0426   23.8132 C   0  0  0  0  0  0
    8.1006    1.8910   23.0443 C   0  0  0  0  0  0
    7.5466    0.5880   22.8096 N   0  0  0  0  0  0
    7.2504    0.2399   21.4985 C   0  0  0  0  0  0
    7.5098    0.9833   20.5435 O   0  0  0  0  0  0
    6.6044   -1.0300   21.1607 C   0  0  0  0  0  0
    5.9699   -1.2721   19.9414 C   0  0  0  0  0  0
    5.5696   -2.5649   19.9081 O   0  0  0  0  0  0
    5.9699   -3.0441   21.1077 C   0  0  0  0  0  0
    6.6429   -2.1818   21.8201 N   0  0  0  0  0  0
    7.4165   -0.3471   23.9858 C   0  0  1  0  0  0
    8.7295   -1.1528   24.2689 C   0  0  0  0  0  0
    9.1692   -1.2843   25.4099 O   0  0  0  0  0  0
    9.3733   -1.6070   23.1798 N   0  0  0  0  0  0
   10.7252   -2.1500   23.1180 C   0  0  0  0  0  0
   11.6129   -1.2732   22.2020 C   0  0  1  0  0  0
   12.0188    0.0470   22.8489 C   0  0  0  0  0  0
   13.4637    0.2593   22.4398 C   0  0  0  0  0  0
   13.9690   -1.0585   22.3077 O   0  0  0  0  0  0
   12.9520   -1.9256   21.8196 C   0  0  0  0  0  0
    6.7439    0.3606   25.1596 C   0  0  0  0  0  0
    7.4226    0.9038   26.2638 C   0  0  0  0  0  0
    6.7095    1.5311   27.2848 C   0  0  0  0  0  0
    5.3210    1.6107   27.1768 C   0  0  0  0  0  0
    4.6359    1.1077   26.1204 N   0  0  0  0  0  0
    5.3483    0.5012   25.1382 C   0  0  0  0  0  0
    7.4513    3.0469   22.5834 C   0  0  0  0  0  0
    7.9662    4.3097   22.8612 C   0  0  0  0  0  0
    9.9577    7.0459   25.8139 H   0  0  0  0  0  0
    9.9695    5.3180   26.1157 H   0  0  0  0  0  0
    8.4584    6.1297   25.7628 H   0  0  0  0  0  0
    9.1311    6.8851   22.1543 H   0  0  0  0  0  0
    7.9823    7.0935   23.4759 H   0  0  0  0  0  0
    9.5038    7.9517   23.5077 H   0  0  0  0  0  0
   11.4017    5.6959   22.5883 H   0  0  0  0  0  0
   11.6636    6.8665   23.8713 H   0  0  0  0  0  0
   11.8195    5.1672   24.2108 H   0  0  0  0  0  0
   10.6554    3.3660   24.7074 H   0  0  0  0  0  0
    9.7928    1.1967   24.2110 H   0  0  0  0  0  0
    5.7565   -0.6683   19.0698 H   0  0  0  0  0  0
    5.8001   -4.0937   21.2971 H   0  0  0  0  0  0
    6.7075   -1.1393   23.7957 H   0  0  0  0  0  0
    8.9141   -1.4951   22.2874 H   0  0  0  0  0  0
   11.1748   -2.2670   24.1064 H   0  0  0  0  0  0
   10.6331   -3.1517   22.7020 H   0  0  0  0  0  0
   11.0731   -1.0527   21.2790 H   0  0  0  0  0  0
   11.3996    0.8740   22.5025 H   0  0  0  0  0  0
   11.9411    0.0060   23.9365 H   0  0  0  0  0  0
   13.5692    0.8061   21.5072 H   0  0  0  0  0  0
   14.0233    0.8201   23.1844 H   0  0  0  0  0  0
   13.0999   -2.9090   22.2627 H   0  0  0  0  0  0
   13.0719   -1.9999   20.7389 H   0  0  0  0  0  0
    8.4989    0.8600   26.3397 H   0  0  0  0  0  0
    7.2275    1.9481   28.1346 H   0  0  0  0  0  0
    4.7335    2.0930   27.9443 H   0  0  0  0  0  0
    4.7700    0.1185   24.3087 H   0  0  0  0  0  0
    6.5396    2.9733   22.0079 H   0  0  0  0  0  0
    7.4329    5.1636   22.4732 H   0  0  0  0  0  0
  1  2  1  0  0  0
  1 35  1  0  0  0
  1 36  1  0  0  0
  1 37  1  0  0  0
  2  3  1  0  0  0
  2  4  1  0  0  0
  2  5  1  0  0  0
  3 38  1  0  0  0
  3 39  1  0  0  0
  3 40  1  0  0  0
  4 41  1  0  0  0
  4 42  1  0  0  0
  4 43  1  0  0  0
  5 34  2  0  0  0
  5  6  1  0  0  0
  6  7  2  0  0  0
  6 44  1  0  0  0
  7  8  1  0  0  0
  7 45  1  0  0  0
  8  9  1  0  0  0
  8 33  2  0  0  0
  9 10  1  0  0  0
  9 17  1  0  0  0
 10 11  2  0  0  0
 10 12  1  0  0  0
 12 16  1  0  0  0
 12 13  2  0  0  0
 13 14  1  0  0  0
 13 46  1  0  0  0
 14 15  1  0  0  0
 15 16  2  0  0  0
 15 47  1  0  0  0
 17 18  1  0  0  0
 17 27  1  0  0  0
 17 48  1  0  0  0
 18 19  2  0  0  0
 18 20  1  0  0  0
 20 21  1  0  0  0
 20 49  1  0  0  0
 21 22  1  0  0  0
 21 50  1  0  0  0
 21 51  1  0  0  0
 22 26  1  0  0  0
 22 23  1  0  0  0
 22 52  1  0  0  0
 23 24  1  0  0  0
 23 53  1  0  0  0
 23 54  1  0  0  0
 24 25  1  0  0  0
 24 55  1  0  0  0
 24 56  1  0  0  0
 25 26  1  0  0  0
 26 57  1  0  0  0
 26 58  1  0  0  0
 27 32  2  0  0  0
 27 28  1  0  0  0
 28 29  2  0  0  0
 28 59  1  0  0  0
 29 30  1  0  0  0
 29 60  1  0  0  0
 30 31  2  0  0  0
 30 61  1  0  0  0
 31 32  1  0  0  0
 32 62  1  0  0  0
 33 34  1  0  0  0
 33 63  1  0  0  0
 34 64  1  0  0  0
M  END
> <r_i_docking_score>
-4.46918849511572

$$$$
ligprep_5.maegz:47
                    3D
 Schrodinger Suite 2020-4.
 64 67  0  0  1  0            999 V2000
    4.4578    3.4077   21.7059 C   0  0  0  0  0  0
    5.5179    3.3324   22.8328 C   0  0  0  0  0  0
    6.7158    4.2311   22.4442 C   0  0  0  0  0  0
    4.8783    3.9483   24.1067 C   0  0  0  0  0  0
    5.9741    1.8611   23.0202 C   0  0  0  0  0  0
    6.5422    1.1706   21.9403 C   0  0  0  0  0  0
    6.8923   -0.1723   22.0520 C   0  0  0  0  0  0
    6.6690   -0.8690   23.2495 C   0  0  0  0  0  0
    6.9845   -2.2621   23.3689 N   0  0  0  0  0  0
    6.3710   -3.1272   22.4758 C   0  0  0  0  0  0
    5.5692   -2.7633   21.6132 O   0  0  0  0  0  0
    6.6237   -4.5534   22.5420 C   0  0  0  0  0  0
    5.6891   -5.5404   22.2442 C   0  0  0  0  0  0
    6.2970   -6.7442   22.3080 O   0  0  0  0  0  0
    7.5699   -6.4231   22.6110 C   0  0  0  0  0  0
    7.7909   -5.1415   22.7393 N   0  0  0  0  0  0
    7.7698   -2.7602   24.5623 C   0  0  1  0  0  0
    8.7704   -1.7584   25.2014 C   0  0  0  0  0  0
    8.7694   -1.5603   26.4190 O   0  0  0  0  0  0
    9.5991   -1.1346   24.3518 N   0  0  0  0  0  0
   10.5877   -0.1284   24.7292 C   0  0  0  0  0  0
   10.2514    1.2657   24.1611 C   0  0  1  0  0  0
   11.4180    2.2494   24.1506 C   0  0  0  0  0  0
   11.1792    3.1508   22.9575 C   0  0  0  0  0  0
   10.1037    2.4226   22.1595 C   0  0  0  0  0  0
    9.9833    1.1396   22.7657 O   0  0  0  0  0  0
    6.9612   -3.5698   25.5723 C   0  0  0  0  0  0
    5.5649   -3.4785   25.6976 C   0  0  0  0  0  0
    4.8946   -4.2731   26.6290 C   0  0  0  0  0  0
    5.6394   -5.1440   27.4244 C   0  0  0  0  0  0
    6.9881   -5.2552   27.3279 N   0  0  0  0  0  0
    7.6204   -4.4789   26.4121 C   0  0  0  0  0  0
    6.1531   -0.1697   24.3464 C   0  0  0  0  0  0
    5.8124    1.1773   24.2358 C   0  0  0  0  0  0
    4.0918    4.4261   21.5609 H   0  0  0  0  0  0
    3.5944    2.7767   21.9250 H   0  0  0  0  0  0
    4.8569    3.0849   20.7433 H   0  0  0  0  0  0
    7.4840    4.2265   23.2170 H   0  0  0  0  0  0
    7.1762    3.9169   21.5083 H   0  0  0  0  0  0
    6.4094    5.2689   22.3012 H   0  0  0  0  0  0
    5.5800    3.9643   24.9435 H   0  0  0  0  0  0
    4.5635    4.9794   23.9381 H   0  0  0  0  0  0
    3.9917    3.3946   24.4235 H   0  0  0  0  0  0
    6.6891    1.6669   20.9921 H   0  0  0  0  0  0
    7.3147   -0.6780   21.1966 H   0  0  0  0  0  0
    4.6371   -5.5395   21.9939 H   0  0  0  0  0  0
    8.2642   -7.2438   22.7079 H   0  0  0  0  0  0
    8.5193   -3.4227   24.1367 H   0  0  0  0  0  0
    9.5183   -1.3294   23.3628 H   0  0  0  0  0  0
   10.6864   -0.0456   25.8159 H   0  0  0  0  0  0
   11.5695   -0.4550   24.3780 H   0  0  0  0  0  0
    9.3556    1.6457   24.6545 H   0  0  0  0  0  0
   11.4924    2.7698   25.1026 H   0  0  0  0  0  0
   12.3678    1.7221   24.0364 H   0  0  0  0  0  0
   10.8344    4.1446   23.2579 H   0  0  0  0  0  0
   12.0920    3.2790   22.3711 H   0  0  0  0  0  0
    9.1485    2.9333   22.2033 H   0  0  0  0  0  0
   10.3522    2.3372   21.1042 H   0  0  0  0  0  0
    4.9973   -2.8027   25.0772 H   0  0  0  0  0  0
    3.8207   -4.2163   26.7305 H   0  0  0  0  0  0
    5.1593   -5.7752   28.1569 H   0  0  0  0  0  0
    8.6933   -4.6052   26.3615 H   0  0  0  0  0  0
    5.9946   -0.6646   25.2912 H   0  0  0  0  0  0
    5.3942    1.6613   25.1020 H   0  0  0  0  0  0
  1  2  1  0  0  0
  1 35  1  0  0  0
  1 36  1  0  0  0
  1 37  1  0  0  0
  2  3  1  0  0  0
  2  4  1  0  0  0
  2  5  1  0  0  0
  3 38  1  0  0  0
  3 39  1  0  0  0
  3 40  1  0  0  0
  4 41  1  0  0  0
  4 42  1  0  0  0
  4 43  1  0  0  0
  5 34  2  0  0  0
  5  6  1  0  0  0
  6  7  2  0  0  0
  6 44  1  0  0  0
  7  8  1  0  0  0
  7 45  1  0  0  0
  8  9  1  0  0  0
  8 33  2  0  0  0
  9 10  1  0  0  0
  9 17  1  0  0  0
 10 11  2  0  0  0
 10 12  1  0  0  0
 12 16  1  0  0  0
 12 13  2  0  0  0
 13 14  1  0  0  0
 13 46  1  0  0  0
 14 15  1  0  0  0
 15 16  2  0  0  0
 15 47  1  0  0  0
 17 18  1  0  0  0
 17 27  1  0  0  0
 17 48  1  0  0  0
 18 19  2  0  0  0
 18 20  1  0  0  0
 20 21  1  0  0  0
 20 49  1  0  0  0
 21 22  1  0  0  0
 21 50  1  0  0  0
 21 51  1  0  0  0
 22 26  1  0  0  0
 22 23  1  0  0  0
 22 52  1  0  0  0
 23 24  1  0  0  0
 23 53  1  0  0  0
 23 54  1  0  0  0
 24 25  1  0  0  0
 24 55  1  0  0  0
 24 56  1  0  0  0
 25 26  1  0  0  0
 25 57  1  0  0  0
 25 58  1  0  0  0
 27 32  2  0  0  0
 27 28  1  0  0  0
 28 29  2  0  0  0
 28 59  1  0  0  0
 29 30  1  0  0  0
 29 60  1  0  0  0
 30 31  2  0  0  0
 30 61  1  0  0  0
 31 32  1  0  0  0
 32 62  1  0  0  0
 33 34  1  0  0  0
 33 63  1  0  0  0
 34 64  1  0  0  0
M  END
> <r_i_docking_score>
-2.90268054153022

$$$$
ligprep_5.maegz:48
                    3D
 Schrodinger Suite 2020-4.
 64 66  0  0  1  0            999 V2000
    5.6529    0.9797   17.9117 C   0  0  0  0  0  0
    4.7694    0.7512   19.0006 O   0  0  0  0  0  0
    4.2044    1.8878   19.5887 C   0  0  0  0  0  0
    5.1951    2.4913   20.5871 C   0  0  0  0  0  0
    5.7522    1.5353   21.5520 N   0  0  0  0  0  0
    6.9870    1.0044   21.4716 C   0  0  0  0  0  0
    7.7561    1.2149   20.5310 O   0  0  0  0  0  0
    7.4494    0.1294   22.6772 C   0  0  1  0  0  0
    6.6939   -1.1829   22.8551 C   0  0  0  0  0  0
    6.5844   -1.7507   24.1307 C   0  0  0  0  0  0
    5.9543   -2.9857   24.2947 C   0  0  0  0  0  0
    5.4551   -3.6342   23.1646 C   0  0  0  0  0  0
    5.5475   -3.1138   21.9154 N   0  0  0  0  0  0
    6.1433   -1.9019   21.7785 C   0  0  0  0  0  0
    8.9524    0.0505   22.8337 N   0  0  0  0  0  0
    9.6930   -1.0421   22.3987 C   0  0  0  0  0  0
    9.1563   -2.0363   21.9048 O   0  0  0  0  0  0
   11.1658   -1.0780   22.4702 C   0  0  0  0  0  0
   12.0783   -0.2151   23.0919 C   0  0  0  0  0  0
   13.3309   -0.5547   22.7079 O   0  0  0  0  0  0
   13.1321   -1.6771   21.9847 C   0  0  0  0  0  0
   11.8803   -2.0473   21.9079 N   0  0  0  0  0  0
    9.5711    1.3006   23.0884 C   0  0  0  0  0  0
    9.3739    1.9591   24.3037 C   0  0  0  0  0  0
    9.9162    3.2295   24.4974 C   0  0  0  0  0  0
   10.7215    3.8331   23.5162 C   0  0  0  0  0  0
   11.2147    5.2981   23.6518 C   0  0  0  0  0  0
   12.5276    5.5551   22.8618 C   0  0  0  0  0  0
   11.5173    5.7186   25.1094 C   0  0  0  0  0  0
   10.0915    6.2102   23.1086 C   0  0  0  0  0  0
   10.9502    3.1300   22.3266 C   0  0  0  0  0  0
   10.3059    1.9266   22.0820 C   0  0  0  0  0  0
    3.0272    1.5473   20.2588 O   0  0  0  0  0  0
    2.0715    2.5896   20.4154 C   0  0  0  0  0  0
    5.9758    0.0202   17.5101 H   0  0  0  0  0  0
    5.1707    1.5326   17.1076 H   0  0  0  0  0  0
    6.5373    1.5325   18.2222 H   0  0  0  0  0  0
    3.9711    2.6243   18.8106 H   0  0  0  0  0  0
    4.7174    3.3122   21.1207 H   0  0  0  0  0  0
    5.9695    2.9735   20.0036 H   0  0  0  0  0  0
    5.1382    1.2530   22.3047 H   0  0  0  0  0  0
    7.1393    0.7704   23.5033 H   0  0  0  0  0  0
    7.0024   -1.2452   24.9890 H   0  0  0  0  0  0
    5.8703   -3.4359   25.2731 H   0  0  0  0  0  0
    4.9756   -4.5983   23.2499 H   0  0  0  0  0  0
    6.2168   -1.5343   20.7648 H   0  0  0  0  0  0
   12.0065    0.6714   23.7044 H   0  0  0  0  0  0
   14.0093   -2.1731   21.6011 H   0  0  0  0  0  0
    8.7680    1.5117   25.0785 H   0  0  0  0  0  0
    9.6619    3.7429   25.4106 H   0  0  0  0  0  0
   12.9610    6.5267   23.1061 H   0  0  0  0  0  0
   12.3720    5.5470   21.7827 H   0  0  0  0  0  0
   13.2867    4.8069   23.0954 H   0  0  0  0  0  0
   10.6532    5.6277   25.7669 H   0  0  0  0  0  0
   12.3429    5.1470   25.5311 H   0  0  0  0  0  0
   11.8169    6.7670   25.1615 H   0  0  0  0  0  0
    9.1818    6.1175   23.7036 H   0  0  0  0  0  0
   10.3701    7.2598   23.1138 H   0  0  0  0  0  0
    9.8241    5.9541   22.0848 H   0  0  0  0  0  0
   11.5459    3.5467   21.5285 H   0  0  0  0  0  0
   10.3696    1.4574   21.1103 H   0  0  0  0  0  0
    1.1986    2.1986   20.9376 H   0  0  0  0  0  0
    2.4605    3.4227   21.0005 H   0  0  0  0  0  0
    1.7369    2.9710   19.4497 H   0  0  0  0  0  0
  1  2  1  0  0  0
  1 35  1  0  0  0
  1 36  1  0  0  0
  1 37  1  0  0  0
  2  3  1  0  0  0
  3  4  1  0  0  0
  3 33  1  0  0  0
  3 38  1  0  0  0
  4  5  1  0  0  0
  4 39  1  0  0  0
  4 40  1  0  0  0
  5  6  1  0  0  0
  5 41  1  0  0  0
  6  7  2  0  0  0
  6  8  1  0  0  0
  8  9  1  0  0  0
  8 15  1  0  0  0
  8 42  1  0  0  0
  9 14  2  0  0  0
  9 10  1  0  0  0
 10 11  2  0  0  0
 10 43  1  0  0  0
 11 12  1  0  0  0
 11 44  1  0  0  0
 12 13  2  0  0  0
 12 45  1  0  0  0
 13 14  1  0  0  0
 14 46  1  0  0  0
 15 16  1  0  0  0
 15 23  1  0  0  0
 16 17  2  0  0  0
 16 18  1  0  0  0
 18 22  1  0  0  0
 18 19  2  0  0  0
 19 20  1  0  0  0
 19 47  1  0  0  0
 20 21  1  0  0  0
 21 22  2  0  0  0
 21 48  1  0  0  0
 23 32  2  0  0  0
 23 24  1  0  0  0
 24 25  2  0  0  0
 24 49  1  0  0  0
 25 26  1  0  0  0
 25 50  1  0  0  0
 26 27  1  0  0  0
 26 31  2  0  0  0
 27 28  1  0  0  0
 27 29  1  0  0  0
 27 30  1  0  0  0
 28 51  1  0  0  0
 28 52  1  0  0  0
 28 53  1  0  0  0
 29 54  1  0  0  0
 29 55  1  0  0  0
 29 56  1  0  0  0
 30 57  1  0  0  0
 30 58  1  0  0  0
 30 59  1  0  0  0
 31 32  1  0  0  0
 31 60  1  0  0  0
 32 61  1  0  0  0
 33 34  1  0  0  0
 34 62  1  0  0  0
 34 63  1  0  0  0
 34 64  1  0  0  0
M  END
> <r_i_docking_score>
-4.01788946903952

$$$$
ligprep_5.maegz:49
                    3D
 Schrodinger Suite 2020-4.
 62 64  0  0  1  0            999 V2000
    1.7460    2.8853   20.5025 C   0  0  0  0  0  0
    2.8711    3.4986   19.6502 C   0  0  0  0  0  0
    3.7111    2.4836   19.1083 O   0  0  0  0  0  0
    4.7189    1.9469   19.8265 C   0  0  0  0  0  0
    5.0331    2.2809   20.9722 O   0  0  0  0  0  0
    5.4549    0.8423   19.0412 C   0  0  0  0  0  0
    6.1082   -0.1445   19.9204 N   0  0  0  0  0  0
    7.3122    0.0327   20.4885 C   0  0  0  0  0  0
    7.9712    1.0565   20.3078 O   0  0  0  0  0  0
    7.8360   -1.1150   21.4074 C   0  0  1  0  0  0
    9.2082   -0.8523   22.0242 C   0  0  0  0  0  0
   10.1822   -1.8593   21.9929 C   0  0  0  0  0  0
   11.4503   -1.6265   22.5300 C   0  0  0  0  0  0
   11.7129   -0.3756   23.0934 C   0  0  0  0  0  0
   10.7902    0.6153   23.1578 N   0  0  0  0  0  0
    9.5636    0.3657   22.6338 C   0  0  0  0  0  0
    6.8529   -1.5466   22.4580 N   0  0  0  0  0  0
    6.0440   -2.6377   22.2082 C   0  0  0  0  0  0
    6.0327   -3.2034   21.1100 O   0  0  0  0  0  0
    5.1720   -3.2055   23.2380 C   0  0  0  0  0  0
    4.6093   -4.4804   23.1613 C   0  0  0  0  0  0
    3.8190   -4.6765   24.2399 O   0  0  0  0  0  0
    3.9166   -3.5039   24.9044 C   0  0  0  0  0  0
    4.6810   -2.6124   24.3216 N   0  0  0  0  0  0
    6.7663   -0.7856   23.6465 C   0  0  0  0  0  0
    7.3850   -1.2123   24.8262 C   0  0  0  0  0  0
    7.2573   -0.4484   25.9885 C   0  0  0  0  0  0
    6.5157    0.7476   25.9829 C   0  0  0  0  0  0
    6.3579    1.6404   27.2371 C   0  0  0  0  0  0
    4.8628    1.9562   27.4979 C   0  0  0  0  0  0
    7.1280    2.9621   26.9991 C   0  0  0  0  0  0
    6.9012    0.9742   28.5273 C   0  0  0  0  0  0
    5.9181    1.1601   24.7852 C   0  0  0  0  0  0
    6.0387    0.3999   23.6315 C   0  0  0  0  0  0
    1.0952    3.6649   20.8947 H   0  0  0  0  0  0
    1.1346    2.2046   19.9121 H   0  0  0  0  0  0
    2.1476    2.3274   21.3487 H   0  0  0  0  0  0
    3.4533    4.2117   20.2379 H   0  0  0  0  0  0
    2.4414    4.0576   18.8172 H   0  0  0  0  0  0
    6.1824    1.3239   18.3861 H   0  0  0  0  0  0
    4.7697    0.3374   18.3644 H   0  0  0  0  0  0
    5.6166   -1.0090   20.0947 H   0  0  0  0  0  0
    7.9821   -1.9317   20.7059 H   0  0  0  0  0  0
    9.9677   -2.8228   21.5448 H   0  0  0  0  0  0
   12.2087   -2.3965   22.4964 H   0  0  0  0  0  0
   12.6827   -0.1450   23.5076 H   0  0  0  0  0  0
    8.8517    1.1741   22.7108 H   0  0  0  0  0  0
    4.6911   -5.2985   22.4598 H   0  0  0  0  0  0
    3.3493   -3.4188   25.8206 H   0  0  0  0  0  0
    7.9602   -2.1269   24.8432 H   0  0  0  0  0  0
    7.7500   -0.8046   26.8787 H   0  0  0  0  0  0
    4.7272    2.5425   28.4066 H   0  0  0  0  0  0
    4.2811    1.0408   27.6127 H   0  0  0  0  0  0
    4.4080    2.5300   26.6906 H   0  0  0  0  0  0
    8.1619    2.7741   26.7078 H   0  0  0  0  0  0
    6.6835    3.5506   26.1940 H   0  0  0  0  0  0
    7.1398    3.5983   27.8845 H   0  0  0  0  0  0
    7.9687    0.7492   28.4679 H   0  0  0  0  0  0
    6.7674    1.6161   29.3979 H   0  0  0  0  0  0
    6.3711    0.0432   28.7347 H   0  0  0  0  0  0
    5.3602    2.0824   24.7315 H   0  0  0  0  0  0
    5.5632    0.7283   22.7248 H   0  0  0  0  0  0
  1  2  1  0  0  0
  1 35  1  0  0  0
  1 36  1  0  0  0
  1 37  1  0  0  0
  2  3  1  0  0  0
  2 38  1  0  0  0
  2 39  1  0  0  0
  3  4  1  0  0  0
  4  5  2  0  0  0
  4  6  1  0  0  0
  6  7  1  0  0  0
  6 40  1  0  0  0
  6 41  1  0  0  0
  7  8  1  0  0  0
  7 42  1  0  0  0
  8  9  2  0  0  0
  8 10  1  0  0  0
 10 11  1  0  0  0
 10 17  1  0  0  0
 10 43  1  0  0  0
 11 16  2  0  0  0
 11 12  1  0  0  0
 12 13  2  0  0  0
 12 44  1  0  0  0
 13 14  1  0  0  0
 13 45  1  0  0  0
 14 15  2  0  0  0
 14 46  1  0  0  0
 15 16  1  0  0  0
 16 47  1  0  0  0
 17 18  1  0  0  0
 17 25  1  0  0  0
 18 19  2  0  0  0
 18 20  1  0  0  0
 20 24  1  0  0  0
 20 21  2  0  0  0
 21 22  1  0  0  0
 21 48  1  0  0  0
 22 23  1  0  0  0
 23 24  2  0  0  0
 23 49  1  0  0  0
 25 34  2  0  0  0
 25 26  1  0  0  0
 26 27  2  0  0  0
 26 50  1  0  0  0
 27 28  1  0  0  0
 27 51  1  0  0  0
 28 29  1  0  0  0
 28 33  2  0  0  0
 29 30  1  0  0  0
 29 31  1  0  0  0
 29 32  1  0  0  0
 30 52  1  0  0  0
 30 53  1  0  0  0
 30 54  1  0  0  0
 31 55  1  0  0  0
 31 56  1  0  0  0
 31 57  1  0  0  0
 32 58  1  0  0  0
 32 59  1  0  0  0
 32 60  1  0  0  0
 33 34  1  0  0  0
 33 61  1  0  0  0
 34 62  1  0  0  0
M  END
> <r_i_docking_score>
-2.73232127996163

$$$$
ligprep_5.maegz:50
                    3D
 Schrodinger Suite 2020-4.
 59 61  0  0  1  0            999 V2000
   13.7826    1.9641   22.2882 C   0  0  0  0  0  0
   13.5367    0.5658   22.3083 O   0  0  0  0  0  0
   12.3639    0.0881   22.7745 C   0  0  0  0  0  0
   11.4608    0.7706   23.2670 O   0  0  0  0  0  0
   12.2860   -1.4478   22.6535 C   0  0  0  0  0  0
   11.0680   -2.0287   23.2519 N   0  0  0  0  0  0
    9.8927   -2.0515   22.6008 C   0  0  0  0  0  0
    9.7559   -1.5014   21.5081 O   0  0  0  0  0  0
    8.6791   -2.8395   23.1839 C   0  0  1  0  0  0
    8.6705   -3.3705   24.6253 C   0  0  0  0  0  0
    9.7007   -4.1921   25.1079 C   0  0  0  0  0  0
    9.5737   -4.8533   26.3286 C   0  0  0  0  0  0
    8.4163   -4.6543   27.0746 C   0  0  0  0  0  0
    7.4217   -3.8295   26.6737 N   0  0  0  0  0  0
    7.5582   -3.2127   25.4735 C   0  0  0  0  0  0
    7.3357   -2.3683   22.7006 N   0  0  0  0  0  0
    6.3048   -3.2328   22.3731 C   0  0  0  0  0  0
    5.1679   -2.8498   22.0940 O   0  0  0  0  0  0
    6.4790   -4.6736   22.4430 C   0  0  0  0  0  0
    5.4664   -5.5571   22.8126 C   0  0  0  0  0  0
    5.9572   -6.8125   22.7608 O   0  0  0  0  0  0
    7.2136   -6.6314   22.3080 C   0  0  0  0  0  0
    7.5207   -5.3893   22.0436 N   0  0  0  0  0  0
    7.0807   -0.9589   22.7066 C   0  0  0  0  0  0
    6.5013   -0.3078   21.6085 C   0  0  0  0  0  0
    6.3232    1.0731   21.6213 C   0  0  0  0  0  0
    6.7255    1.8424   22.7254 C   0  0  0  0  0  0
    6.5450    3.3808   22.7680 C   0  0  0  0  0  0
    6.0324    3.8507   24.1560 C   0  0  0  0  0  0
    5.5139    3.8858   21.7300 C   0  0  0  0  0  0
    7.9049    4.0509   22.4737 C   0  0  0  0  0  0
    7.3481    1.1912   23.7970 C   0  0  0  0  0  0
    7.5222   -0.1862   23.7895 C   0  0  0  0  0  0
   14.8272    2.1516   22.0404 H   0  0  0  0  0  0
   13.1682    2.4533   21.5327 H   0  0  0  0  0  0
   13.5696    2.4270   23.2526 H   0  0  0  0  0  0
   13.1673   -1.8959   23.1011 H   0  0  0  0  0  0
   12.3551   -1.7108   21.5941 H   0  0  0  0  0  0
   11.1502   -2.4787   24.1512 H   0  0  0  0  0  0
    8.9085   -3.7134   22.5949 H   0  0  0  0  0  0
   10.5924   -4.3678   24.5288 H   0  0  0  0  0  0
   10.3524   -5.5180   26.6787 H   0  0  0  0  0  0
    8.2720   -5.1665   28.0128 H   0  0  0  0  0  0
    6.7062   -2.6155   25.1838 H   0  0  0  0  0  0
    4.4462   -5.4407   23.1498 H   0  0  0  0  0  0
    7.8085   -7.5239   22.2018 H   0  0  0  0  0  0
    6.1916   -0.8677   20.7383 H   0  0  0  0  0  0
    5.8634    1.5213   20.7544 H   0  0  0  0  0  0
    5.8209    4.9211   24.1626 H   0  0  0  0  0  0
    6.7561    3.6819   24.9517 H   0  0  0  0  0  0
    5.1113    3.3377   24.4335 H   0  0  0  0  0  0
    5.8449    3.7017   20.7079 H   0  0  0  0  0  0
    4.5431    3.4057   21.8545 H   0  0  0  0  0  0
    5.3526    4.9626   21.8084 H   0  0  0  0  0  0
    8.3017    3.7353   21.5087 H   0  0  0  0  0  0
    7.8230    5.1378   22.4490 H   0  0  0  0  0  0
    8.6542    3.7983   23.2245 H   0  0  0  0  0  0
    7.7174    1.7443   24.6457 H   0  0  0  0  0  0
    8.0161   -0.6400   24.6348 H   0  0  0  0  0  0
  1  2  1  0  0  0
  1 34  1  0  0  0
  1 35  1  0  0  0
  1 36  1  0  0  0
  2  3  1  0  0  0
  3  4  2  0  0  0
  3  5  1  0  0  0
  5  6  1  0  0  0
  5 37  1  0  0  0
  5 38  1  0  0  0
  6  7  1  0  0  0
  6 39  1  0  0  0
  7  8  2  0  0  0
  7  9  1  0  0  0
  9 10  1  0  0  0
  9 16  1  0  0  0
  9 40  1  0  0  0
 10 15  2  0  0  0
 10 11  1  0  0  0
 11 12  2  0  0  0
 11 41  1  0  0  0
 12 13  1  0  0  0
 12 42  1  0  0  0
 13 14  2  0  0  0
 13 43  1  0  0  0
 14 15  1  0  0  0
 15 44  1  0  0  0
 16 17  1  0  0  0
 16 24  1  0  0  0
 17 18  2  0  0  0
 17 19  1  0  0  0
 19 23  1  0  0  0
 19 20  2  0  0  0
 20 21  1  0  0  0
 20 45  1  0  0  0
 21 22  1  0  0  0
 22 23  2  0  0  0
 22 46  1  0  0  0
 24 33  2  0  0  0
 24 25  1  0  0  0
 25 26  2  0  0  0
 25 47  1  0  0  0
 26 27  1  0  0  0
 26 48  1  0  0  0
 27 28  1  0  0  0
 27 32  2  0  0  0
 28 29  1  0  0  0
 28 30  1  0  0  0
 28 31  1  0  0  0
 29 49  1  0  0  0
 29 50  1  0  0  0
 29 51  1  0  0  0
 30 52  1  0  0  0
 30 53  1  0  0  0
 30 54  1  0  0  0
 31 55  1  0  0  0
 31 56  1  0  0  0
 31 57  1  0  0  0
 32 33  1  0  0  0
 32 58  1  0  0  0
 33 59  1  0  0  0
M  END
> <r_i_docking_score>
-5.2406984340931

$$$$
ligprep_5.maegz:51
                    3D
 Schrodinger Suite 2020-4.
 58 61  0  0  1  0            999 V2000
    8.2520   -4.1737   27.1085 C   0  0  0  0  0  0
    7.8634   -4.7118   25.7176 C   0  0  0  0  0  0
    9.0047   -5.6527   25.2646 C   0  0  0  0  0  0
    6.5706   -5.5566   25.8386 C   0  0  0  0  0  0
    7.6310   -3.5243   24.7525 C   0  0  0  0  0  0
    8.4014   -3.3444   23.5940 C   0  0  0  0  0  0
    8.1952   -2.2498   22.7639 C   0  0  0  0  0  0
    7.2019   -1.3150   23.0751 C   0  0  0  0  0  0
    6.9710   -0.2138   22.2146 N   0  0  0  0  0  0
    6.3689   -0.5059   21.0065 C   0  0  0  0  0  0
    6.1374   -1.6609   20.6263 O   0  0  0  0  0  0
    5.9436    0.5535   20.1176 C   0  0  0  0  0  0
    5.9694    0.4633   18.7272 C   0  0  0  0  0  0
    5.3398    1.5447   18.2211 O   0  0  0  0  0  0
    4.9487    2.2224   19.3256 C   0  0  0  0  0  0
    5.2837    1.6534   20.4585 N   0  0  0  0  0  0
    7.4231    1.1615   22.6311 C   0  0  1  0  0  0
    6.5869    1.7915   23.7842 C   0  0  0  0  0  0
    7.1391    2.2529   24.7853 O   0  0  0  0  0  0
    5.2515    1.7823   23.6429 N   0  0  0  0  0  0
    4.3151    2.3597   24.6089 C   0  0  0  0  0  0
    2.9484    2.7490   24.0440 C   0  0  0  0  0  0
    2.2721    1.9474   25.1078 O   0  0  0  0  0  0
    3.5839    1.3583   25.5067 C   0  0  0  0  0  0
    8.9227    1.2286   22.9157 C   0  0  0  0  0  0
    9.7181    2.1294   22.1960 C   0  0  0  0  0  0
   11.0719    2.2778   22.5026 C   0  0  0  0  0  0
   11.6114    1.5002   23.5258 C   0  0  0  0  0  0
   10.8703    0.6297   24.2536 N   0  0  0  0  0  0
    9.5506    0.5165   23.9530 C   0  0  0  0  0  0
    6.4045   -1.4992   24.2057 C   0  0  0  0  0  0
    6.6247   -2.5905   25.0390 C   0  0  0  0  0  0
    8.4077   -4.9806   27.8265 H   0  0  0  0  0  0
    7.4685   -3.5361   27.5074 H   0  0  0  0  0  0
    9.1681   -3.5831   27.0719 H   0  0  0  0  0  0
    8.7695   -6.1200   24.3081 H   0  0  0  0  0  0
    9.9569   -5.1285   25.1654 H   0  0  0  0  0  0
    9.1693   -6.4527   25.9860 H   0  0  0  0  0  0
    6.2382   -5.9166   24.8640 H   0  0  0  0  0  0
    6.7175   -6.4298   26.4764 H   0  0  0  0  0  0
    5.7460   -4.9891   26.2703 H   0  0  0  0  0  0
    9.1698   -4.0449   23.3112 H   0  0  0  0  0  0
    8.8015   -2.1295   21.8769 H   0  0  0  0  0  0
    6.3402   -0.2663   18.0198 H   0  0  0  0  0  0
    4.4164    3.1470   19.1519 H   0  0  0  0  0  0
    7.2628    1.8514   21.8076 H   0  0  0  0  0  0
    4.8457    1.3122   22.8421 H   0  0  0  0  0  0
    4.8252    3.1653   25.1427 H   0  0  0  0  0  0
    2.6783    3.8002   24.1542 H   0  0  0  0  0  0
    2.6929    2.3474   23.0610 H   0  0  0  0  0  0
    3.6147    0.3106   25.2023 H   0  0  0  0  0  0
    3.7318    1.4934   26.5790 H   0  0  0  0  0  0
    9.2840    2.7424   21.4203 H   0  0  0  0  0  0
   11.6828    2.9810   21.9549 H   0  0  0  0  0  0
   12.6558    1.5805   23.7889 H   0  0  0  0  0  0
    8.9896   -0.1422   24.5976 H   0  0  0  0  0  0
    5.6116   -0.8070   24.4414 H   0  0  0  0  0  0
    6.0033   -2.7044   25.9145 H   0  0  0  0  0  0
  1  2  1  0  0  0
  1 33  1  0  0  0
  1 34  1  0  0  0
  1 35  1  0  0  0
  2  3  1  0  0  0
  2  4  1  0  0  0
  2  5  1  0  0  0
  3 36  1  0  0  0
  3 37  1  0  0  0
  3 38  1  0  0  0
  4 39  1  0  0  0
  4 40  1  0  0  0
  4 41  1  0  0  0
  5 32  2  0  0  0
  5  6  1  0  0  0
  6  7  2  0  0  0
  6 42  1  0  0  0
  7  8  1  0  0  0
  7 43  1  0  0  0
  8  9  1  0  0  0
  8 31  2  0  0  0
  9 10  1  0  0  0
  9 17  1  0  0  0
 10 11  2  0  0  0
 10 12  1  0  0  0
 12 16  1  0  0  0
 12 13  2  0  0  0
 13 14  1  0  0  0
 13 44  1  0  0  0
 14 15  1  0  0  0
 15 16  2  0  0  0
 15 45  1  0  0  0
 17 18  1  0  0  0
 17 25  1  0  0  0
 17 46  1  0  0  0
 18 19  2  0  0  0
 18 20  1  0  0  0
 20 21  1  0  0  0
 20 47  1  0  0  0
 21 24  1  0  0  0
 21 22  1  0  0  0
 21 48  1  0  0  0
 22 23  1  0  0  0
 22 49  1  0  0  0
 22 50  1  0  0  0
 23 24  1  0  0  0
 24 51  1  0  0  0
 24 52  1  0  0  0
 25 30  2  0  0  0
 25 26  1  0  0  0
 26 27  2  0  0  0
 26 53  1  0  0  0
 27 28  1  0  0  0
 27 54  1  0  0  0
 28 29  2  0  0  0
 28 55  1  0  0  0
 29 30  1  0  0  0
 30 56  1  0  0  0
 31 32  1  0  0  0
 31 57  1  0  0  0
 32 58  1  0  0  0
M  END
> <r_i_docking_score>
-4.11919054673407

$$$$
ligprep_5.maegz:52
                    3D
 Schrodinger Suite 2020-4.
 69 72  0  0  1  0            999 V2000
    9.1097   -5.2349   26.7408 C   0  0  0  0  0  0
    8.2513   -5.1135   25.6153 O   0  0  0  0  0  0
    8.3603   -4.0537   24.7736 C   0  0  0  0  0  0
    9.1703   -3.1325   24.9218 O   0  0  0  0  0  0
    7.3662   -4.1060   23.5629 C   0  0  0  0  0  0
    7.6250   -2.9540   22.6659 N   0  0  0  0  0  0
    6.8265   -2.0580   22.0522 C   0  0  0  0  0  0
    5.5964   -2.0526   22.1311 O   0  0  0  0  0  0
    7.5869   -1.0170   21.1669 C   0  0  1  0  0  0
    6.6803   -0.1006   20.3586 C   0  0  0  0  0  0
    6.7931   -0.0817   18.9620 C   0  0  0  0  0  0
    5.9691    0.7475   18.2029 C   0  0  0  0  0  0
    5.0419    1.5508   18.8648 C   0  0  0  0  0  0
    4.8995    1.5487   20.2128 N   0  0  0  0  0  0
    5.7068    0.7300   20.9328 C   0  0  0  0  0  0
    8.6950   -0.2887   21.8978 N   0  0  0  0  0  0
    9.9407   -0.8866   21.9079 C   0  0  0  0  0  0
   10.0784   -2.0534   21.5358 O   0  0  0  0  0  0
   11.1652   -0.1964   22.3274 C   0  0  0  0  0  0
   12.4262   -0.7990   22.3124 C   0  0  0  0  0  0
   13.3510    0.1053   22.7069 O   0  0  0  0  0  0
   12.6096    1.2128   22.9389 C   0  0  0  0  0  0
   11.3267    1.0659   22.7085 N   0  0  0  0  0  0
    8.4711    0.9730   22.4992 C   0  0  0  0  0  0
    8.4196    1.0817   23.8916 C   0  0  0  0  0  0
    8.2835    2.3357   24.4849 C   0  0  0  0  0  0
    8.1739    3.4980   23.7025 C   0  0  0  0  0  0
    7.9919    4.9081   24.3281 C   0  0  0  0  0  0
    8.8255    5.9781   23.5668 C   0  0  0  0  0  0
    8.4454    4.9768   25.8104 C   0  0  0  0  0  0
    6.4960    5.2901   24.2550 C   0  0  0  0  0  0
    8.1906    3.3618   22.3083 C   0  0  0  0  0  0
    8.3640    2.1197   21.7125 C   0  0  0  0  0  0
    5.9015   -4.2578   24.0728 C   0  0  0  0  0  0
    5.1454   -5.0822   23.0127 C   0  0  0  0  0  0
    6.2067   -5.6758   22.0769 C   0  0  0  0  0  0
    7.5530   -5.4198   22.7630 C   0  0  0  0  0  0
    8.7692   -6.0540   27.3730 H   0  0  0  0  0  0
   10.1332   -5.4433   26.4270 H   0  0  0  0  0  0
    9.1101   -4.3246   27.3430 H   0  0  0  0  0  0
    8.6082   -2.8400   22.4402 H   0  0  0  0  0  0
    8.0531   -1.6535   20.4153 H   0  0  0  0  0  0
    7.5176   -0.7072   18.4571 H   0  0  0  0  0  0
    6.0484    0.7701   17.1251 H   0  0  0  0  0  0
    4.3924    2.2153   18.3119 H   0  0  0  0  0  0
    5.5671    0.7472   22.0025 H   0  0  0  0  0  0
   12.7810   -1.7872   22.0516 H   0  0  0  0  0  0
   13.1467    2.0890   23.2733 H   0  0  0  0  0  0
    8.5096    0.2007   24.5131 H   0  0  0  0  0  0
    8.2613    2.3779   25.5620 H   0  0  0  0  0  0
    8.7844    6.9496   24.0619 H   0  0  0  0  0  0
    8.4675    6.1462   22.5503 H   0  0  0  0  0  0
    9.8764    5.6924   23.4967 H   0  0  0  0  0  0
    7.8734    4.3107   26.4568 H   0  0  0  0  0  0
    9.5040    4.7357   25.9163 H   0  0  0  0  0  0
    8.3127    5.9802   26.2217 H   0  0  0  0  0  0
    5.8764    4.5835   24.8094 H   0  0  0  0  0  0
    6.3096    6.2794   24.6737 H   0  0  0  0  0  0
    6.1341    5.3038   23.2260 H   0  0  0  0  0  0
    8.0730    4.2165   21.6612 H   0  0  0  0  0  0
    8.3798    2.0500   20.6397 H   0  0  0  0  0  0
    5.8460   -4.8071   25.0140 H   0  0  0  0  0  0
    5.4209   -3.3019   24.2807 H   0  0  0  0  0  0
    4.5518   -5.8673   23.4827 H   0  0  0  0  0  0
    4.4492   -4.4548   22.4527 H   0  0  0  0  0  0
    6.0402   -6.7368   21.8914 H   0  0  0  0  0  0
    6.1810   -5.1709   21.1104 H   0  0  0  0  0  0
    8.3678   -5.3612   22.0411 H   0  0  0  0  0  0
    7.7832   -6.2699   23.4060 H   0  0  0  0  0  0
  1  2  1  0  0  0
  1 38  1  0  0  0
  1 39  1  0  0  0
  1 40  1  0  0  0
  2  3  1  0  0  0
  3  4  2  0  0  0
  3  5  1  0  0  0
  5 37  1  0  0  0
  5  6  1  0  0  0
  5 34  1  0  0  0
  6  7  1  0  0  0
  6 41  1  0  0  0
  7  8  2  0  0  0
  7  9  1  0  0  0
  9 10  1  0  0  0
  9 16  1  0  0  0
  9 42  1  0  0  0
 10 15  2  0  0  0
 10 11  1  0  0  0
 11 12  2  0  0  0
 11 43  1  0  0  0
 12 13  1  0  0  0
 12 44  1  0  0  0
 13 14  2  0  0  0
 13 45  1  0  0  0
 14 15  1  0  0  0
 15 46  1  0  0  0
 16 17  1  0  0  0
 16 24  1  0  0  0
 17 18  2  0  0  0
 17 19  1  0  0  0
 19 23  1  0  0  0
 19 20  2  0  0  0
 20 21  1  0  0  0
 20 47  1  0  0  0
 21 22  1  0  0  0
 22 23  2  0  0  0
 22 48  1  0  0  0
 24 33  2  0  0  0
 24 25  1  0  0  0
 25 26  2  0  0  0
 25 49  1  0  0  0
 26 27  1  0  0  0
 26 50  1  0  0  0
 27 28  1  0  0  0
 27 32  2  0  0  0
 28 29  1  0  0  0
 28 30  1  0  0  0
 28 31  1  0  0  0
 29 51  1  0  0  0
 29 52  1  0  0  0
 29 53  1  0  0  0
 30 54  1  0  0  0
 30 55  1  0  0  0
 30 56  1  0  0  0
 31 57  1  0  0  0
 31 58  1  0  0  0
 31 59  1  0  0  0
 32 33  1  0  0  0
 32 60  1  0  0  0
 33 61  1  0  0  0
 34 35  1  0  0  0
 34 62  1  0  0  0
 34 63  1  0  0  0
 35 36  1  0  0  0
 35 64  1  0  0  0
 35 65  1  0  0  0
 36 37  1  0  0  0
 36 66  1  0  0  0
 36 67  1  0  0  0
 37 68  1  0  0  0
 37 69  1  0  0  0
M  END
> <r_i_docking_score>
-4.38370617890654

$$$$
ligprep_5.maegz:53
                    3D
 Schrodinger Suite 2020-4.
 83 86  0  0  1  0            999 V2000
    6.3123    0.9037   18.4588 C   0  0  0  0  0  0
    7.3094    0.0982   19.0739 O   0  0  0  0  0  0
    7.3288   -0.0528   20.4112 C   0  0  0  0  0  0
    6.6075    0.5514   21.2055 O   0  0  0  0  0  0
    8.3905   -1.0831   20.8720 C   0  0  1  0  0  0
    9.6674   -0.4099   21.4159 C   0  0  0  0  0  0
   10.0655   -1.1515   22.6922 C   0  0  1  0  0  0
   10.4294   -0.2770   23.8113 N   0  0  0  0  0  0
    9.7770    0.7633   24.3617 C   0  0  0  0  0  0
   10.3696    1.5333   25.1079 O   0  0  0  0  0  0
    8.2627    1.0198   24.0800 C   0  0  1  0  0  0
    7.3371    0.1961   24.9730 C   0  0  0  0  0  0
    6.1115   -0.2737   24.4758 C   0  0  0  0  0  0
    5.2550   -1.0131   25.2900 C   0  0  0  0  0  0
    5.6556   -1.2870   26.5960 C   0  0  0  0  0  0
    6.8338   -0.8528   27.1080 N   0  0  0  0  0  0
    7.6475   -0.1232   26.3049 C   0  0  0  0  0  0
    7.8159    2.4548   23.8767 N   0  0  0  0  0  0
    8.5898    3.3674   23.1855 C   0  0  0  0  0  0
    9.6960    3.1153   22.7078 O   0  0  0  0  0  0
    8.0906    4.7046   22.9809 C   0  0  0  0  0  0
    8.1888    5.7636   23.8743 C   0  0  0  0  0  0
    7.5898    6.8383   23.3074 O   0  0  0  0  0  0
    7.1552    6.3611   22.1151 C   0  0  0  0  0  0
    7.4240    5.0945   21.9078 N   0  0  0  0  0  0
    6.5216    2.8356   24.3079 C   0  0  0  0  0  0
    5.4589    2.8724   23.4017 C   0  0  0  0  0  0
    4.1868    3.2224   23.8402 C   0  0  0  0  0  0
    3.9534    3.5395   25.1883 C   0  0  0  0  0  0
    2.5426    3.9082   25.7149 C   0  0  0  0  0  0
    1.4814    4.0326   24.5900 C   0  0  0  0  0  0
    2.5862    5.2727   26.4482 C   0  0  0  0  0  0
    2.0611    2.8155   26.6992 C   0  0  0  0  0  0
    5.0355    3.5037   26.0832 C   0  0  0  0  0  0
    6.3130    3.1649   25.6484 C   0  0  0  0  0  0
    8.9525   -2.1492   23.0136 C   0  0  0  0  0  0
    7.9293   -1.9671   21.9726 N   0  0  0  0  0  0
    6.7762   -2.7757   21.9090 C   0  0  0  0  0  0
    5.9560   -2.7831   20.9891 O   0  0  0  0  0  0
    6.6947   -3.5976   22.9996 O   0  0  0  0  0  0
    5.7720   -4.6852   23.1612 C   0  0  0  0  0  0
    6.1627   -5.2946   24.5211 C   0  0  0  0  0  0
    5.9600   -5.7460   22.0502 C   0  0  0  0  0  0
    4.3076   -4.1924   23.2228 C   0  0  0  0  0  0
    6.5786    1.1071   17.4212 H   0  0  0  0  0  0
    5.3475    0.3933   18.4685 H   0  0  0  0  0  0
    6.1945    1.8621   18.9675 H   0  0  0  0  0  0
    8.6775   -1.6529   19.9926 H   0  0  0  0  0  0
    9.5486    0.6649   21.5626 H   0  0  0  0  0  0
   10.4861   -0.5126   20.7080 H   0  0  0  0  0  0
   10.9314   -1.7816   22.4702 H   0  0  0  0  0  0
   11.3688   -0.4120   24.1539 H   0  0  0  0  0  0
    8.0973    0.6117   23.0930 H   0  0  0  0  0  0
    5.8061   -0.0517   23.4647 H   0  0  0  0  0  0
    4.3028   -1.3537   24.9122 H   0  0  0  0  0  0
    5.0232   -1.8589   27.2594 H   0  0  0  0  0  0
    8.5659    0.2162   26.7611 H   0  0  0  0  0  0
    8.6237    5.8918   24.8543 H   0  0  0  0  0  0
    6.6318    7.0515   21.4695 H   0  0  0  0  0  0
    5.6146    2.6268   22.3609 H   0  0  0  0  0  0
    3.3972    3.2343   23.1054 H   0  0  0  0  0  0
    0.5065    4.3179   24.9867 H   0  0  0  0  0  0
    1.3386    3.0914   24.0569 H   0  0  0  0  0  0
    1.7603    4.7919   23.8580 H   0  0  0  0  0  0
    3.2228    5.2493   27.3329 H   0  0  0  0  0  0
    2.9630    6.0632   25.7958 H   0  0  0  0  0  0
    1.5956    5.5780   26.7893 H   0  0  0  0  0  0
    2.7217    2.7203   27.5621 H   0  0  0  0  0  0
    1.0643    3.0325   27.0855 H   0  0  0  0  0  0
    2.0159    1.8376   26.2180 H   0  0  0  0  0  0
    4.8910    3.7316   27.1283 H   0  0  0  0  0  0
    7.1324    3.1337   26.3523 H   0  0  0  0  0  0
    9.3301   -3.1713   22.9487 H   0  0  0  0  0  0
    8.5445   -2.0108   24.0150 H   0  0  0  0  0  0
    6.0782   -4.5613   25.3244 H   0  0  0  0  0  0
    5.5274   -6.1424   24.7802 H   0  0  0  0  0  0
    7.1958   -5.6454   24.5187 H   0  0  0  0  0  0
    5.6663   -5.3728   21.0687 H   0  0  0  0  0  0
    7.0020   -6.0606   21.9761 H   0  0  0  0  0  0
    5.3648   -6.6373   22.2490 H   0  0  0  0  0  0
    3.9965   -3.6878   22.3104 H   0  0  0  0  0  0
    3.6181   -5.0216   23.3832 H   0  0  0  0  0  0
    4.1631   -3.4874   24.0408 H   0  0  0  0  0  0
  1  2  1  0  0  0
  1 45  1  0  0  0
  1 46  1  0  0  0
  1 47  1  0  0  0
  2  3  1  0  0  0
  3  4  2  0  0  0
  3  5  1  0  0  0
  5  6  1  0  0  0
  5 37  1  0  0  0
  5 48  1  0  0  0
  6  7  1  0  0  0
  6 49  1  0  0  0
  6 50  1  0  0  0
  7  8  1  0  0  0
  7 36  1  0  0  0
  7 51  1  0  0  0
  8  9  1  0  0  0
  8 52  1  0  0  0
  9 10  2  0  0  0
  9 11  1  0  0  0
 11 12  1  0  0  0
 11 18  1  0  0  0
 11 53  1  0  0  0
 12 17  2  0  0  0
 12 13  1  0  0  0
 13 14  2  0  0  0
 13 54  1  0  0  0
 14 15  1  0  0  0
 14 55  1  0  0  0
 15 16  2  0  0  0
 15 56  1  0  0  0
 16 17  1  0  0  0
 17 57  1  0  0  0
 18 19  1  0  0  0
 18 26  1  0  0  0
 19 20  2  0  0  0
 19 21  1  0  0  0
 21 25  1  0  0  0
 21 22  2  0  0  0
 22 23  1  0  0  0
 22 58  1  0  0  0
 23 24  1  0  0  0
 24 25  2  0  0  0
 24 59  1  0  0  0
 26 35  2  0  0  0
 26 27  1  0  0  0
 27 28  2  0  0  0
 27 60  1  0  0  0
 28 29  1  0  0  0
 28 61  1  0  0  0
 29 30  1  0  0  0
 29 34  2  0  0  0
 30 31  1  0  0  0
 30 32  1  0  0  0
 30 33  1  0  0  0
 31 62  1  0  0  0
 31 63  1  0  0  0
 31 64  1  0  0  0
 32 65  1  0  0  0
 32 66  1  0  0  0
 32 67  1  0  0  0
 33 68  1  0  0  0
 33 69  1  0  0  0
 33 70  1  0  0  0
 34 35  1  0  0  0
 34 71  1  0  0  0
 35 72  1  0  0  0
 36 37  1  0  0  0
 36 73  1  0  0  0
 36 74  1  0  0  0
 37 38  1  0  0  0
 38 39  2  0  0  0
 38 40  1  0  0  0
 40 41  1  0  0  0
 41 42  1  0  0  0
 41 43  1  0  0  0
 41 44  1  0  0  0
 42 75  1  0  0  0
 42 76  1  0  0  0
 42 77  1  0  0  0
 43 78  1  0  0  0
 43 79  1  0  0  0
 43 80  1  0  0  0
 44 81  1  0  0  0
 44 82  1  0  0  0
 44 83  1  0  0  0
M  END
> <r_i_docking_score>
-0.76236738562034

$$$$
ligprep_5.maegz:54
                    3D
 Schrodinger Suite 2020-4.
 83 86  0  0  1  0            999 V2000
    6.3123    0.9037   18.4588 C   0  0  0  0  0  0
    7.3094    0.0982   19.0739 O   0  0  0  0  0  0
    7.3288   -0.0528   20.4112 C   0  0  0  0  0  0
    6.6075    0.5514   21.2055 O   0  0  0  0  0  0
    8.3905   -1.0831   20.8720 C   0  0  1  0  0  0
    9.6674   -0.4099   21.4159 C   0  0  0  0  0  0
   10.0655   -1.1515   22.6922 C   0  0  1  0  0  0
   10.4294   -0.2770   23.8113 N   0  0  0  0  0  0
    9.7770    0.7633   24.3617 C   0  0  0  0  0  0
   10.3696    1.5333   25.1079 O   0  0  0  0  0  0
    8.2627    1.0198   24.0800 C   0  0  1  0  0  0
    7.3371    0.1961   24.9730 C   0  0  0  0  0  0
    6.1115   -0.2737   24.4758 C   0  0  0  0  0  0
    5.2550   -1.0131   25.2900 C   0  0  0  0  0  0
    5.6556   -1.2870   26.5960 C   0  0  0  0  0  0
    6.8338   -0.8528   27.1080 N   0  0  0  0  0  0
    7.6475   -0.1232   26.3049 C   0  0  0  0  0  0
    7.8159    2.4548   23.8767 N   0  0  0  0  0  0
    8.5898    3.3674   23.1855 C   0  0  0  0  0  0
    9.6960    3.1153   22.7078 O   0  0  0  0  0  0
    8.0906    4.7046   22.9809 C   0  0  0  0  0  0
    8.1888    5.7636   23.8743 C   0  0  0  0  0  0
    7.5898    6.8383   23.3074 O   0  0  0  0  0  0
    7.1552    6.3611   22.1151 C   0  0  0  0  0  0
    7.4240    5.0945   21.9078 N   0  0  0  0  0  0
    6.5216    2.8356   24.3079 C   0  0  0  0  0  0
    5.4589    2.8724   23.4017 C   0  0  0  0  0  0
    4.1868    3.2224   23.8402 C   0  0  0  0  0  0
    3.9534    3.5395   25.1883 C   0  0  0  0  0  0
    2.5426    3.9082   25.7149 C   0  0  0  0  0  0
    1.4814    4.0326   24.5900 C   0  0  0  0  0  0
    2.5862    5.2727   26.4482 C   0  0  0  0  0  0
    2.0611    2.8155   26.6992 C   0  0  0  0  0  0
    5.0355    3.5037   26.0832 C   0  0  0  0  0  0
    6.3130    3.1649   25.6484 C   0  0  0  0  0  0
    8.9525   -2.1492   23.0136 C   0  0  0  0  0  0
    7.9293   -1.9671   21.9726 N   0  0  0  0  0  0
    6.7762   -2.7757   21.9090 C   0  0  0  0  0  0
    5.9560   -2.7831   20.9891 O   0  0  0  0  0  0
    6.6947   -3.5976   22.9996 O   0  0  0  0  0  0
    5.7720   -4.6852   23.1612 C   0  0  0  0  0  0
    6.1627   -5.2946   24.5211 C   0  0  0  0  0  0
    5.9600   -5.7460   22.0502 C   0  0  0  0  0  0
    4.3076   -4.1924   23.2228 C   0  0  0  0  0  0
    6.5786    1.1071   17.4212 H   0  0  0  0  0  0
    5.3475    0.3933   18.4685 H   0  0  0  0  0  0
    6.1945    1.8621   18.9675 H   0  0  0  0  0  0
    8.6775   -1.6529   19.9926 H   0  0  0  0  0  0
    9.5486    0.6649   21.5626 H   0  0  0  0  0  0
   10.4861   -0.5126   20.7080 H   0  0  0  0  0  0
   10.9314   -1.7816   22.4702 H   0  0  0  0  0  0
   11.3688   -0.4120   24.1539 H   0  0  0  0  0  0
    8.0973    0.6117   23.0930 H   0  0  0  0  0  0
    5.8061   -0.0517   23.4647 H   0  0  0  0  0  0
    4.3028   -1.3537   24.9122 H   0  0  0  0  0  0
    5.0232   -1.8589   27.2594 H   0  0  0  0  0  0
    8.5659    0.2162   26.7611 H   0  0  0  0  0  0
    8.6237    5.8918   24.8543 H   0  0  0  0  0  0
    6.6318    7.0515   21.4695 H   0  0  0  0  0  0
    5.6146    2.6268   22.3609 H   0  0  0  0  0  0
    3.3972    3.2343   23.1054 H   0  0  0  0  0  0
    0.5065    4.3179   24.9867 H   0  0  0  0  0  0
    1.3386    3.0914   24.0569 H   0  0  0  0  0  0
    1.7603    4.7919   23.8580 H   0  0  0  0  0  0
    3.2228    5.2493   27.3329 H   0  0  0  0  0  0
    2.9630    6.0632   25.7958 H   0  0  0  0  0  0
    1.5956    5.5780   26.7893 H   0  0  0  0  0  0
    2.7217    2.7203   27.5621 H   0  0  0  0  0  0
    1.0643    3.0325   27.0855 H   0  0  0  0  0  0
    2.0159    1.8376   26.2180 H   0  0  0  0  0  0
    4.8910    3.7316   27.1283 H   0  0  0  0  0  0
    7.1324    3.1337   26.3523 H   0  0  0  0  0  0
    9.3301   -3.1713   22.9487 H   0  0  0  0  0  0
    8.5445   -2.0108   24.0150 H   0  0  0  0  0  0
    6.0782   -4.5613   25.3244 H   0  0  0  0  0  0
    5.5274   -6.1424   24.7802 H   0  0  0  0  0  0
    7.1958   -5.6454   24.5187 H   0  0  0  0  0  0
    5.6663   -5.3728   21.0687 H   0  0  0  0  0  0
    7.0020   -6.0606   21.9761 H   0  0  0  0  0  0
    5.3648   -6.6373   22.2490 H   0  0  0  0  0  0
    3.9965   -3.6878   22.3104 H   0  0  0  0  0  0
    3.6181   -5.0216   23.3832 H   0  0  0  0  0  0
    4.1631   -3.4874   24.0408 H   0  0  0  0  0  0
  1  2  1  0  0  0
  1 45  1  0  0  0
  1 46  1  0  0  0
  1 47  1  0  0  0
  2  3  1  0  0  0
  3  4  2  0  0  0
  3  5  1  0  0  0
  5  6  1  0  0  0
  5 37  1  0  0  0
  5 48  1  0  0  0
  6  7  1  0  0  0
  6 49  1  0  0  0
  6 50  1  0  0  0
  7  8  1  0  0  0
  7 36  1  0  0  0
  7 51  1  0  0  0
  8  9  1  0  0  0
  8 52  1  0  0  0
  9 10  2  0  0  0
  9 11  1  0  0  0
 11 12  1  0  0  0
 11 18  1  0  0  0
 11 53  1  0  0  0
 12 17  2  0  0  0
 12 13  1  0  0  0
 13 14  2  0  0  0
 13 54  1  0  0  0
 14 15  1  0  0  0
 14 55  1  0  0  0
 15 16  2  0  0  0
 15 56  1  0  0  0
 16 17  1  0  0  0
 17 57  1  0  0  0
 18 19  1  0  0  0
 18 26  1  0  0  0
 19 20  2  0  0  0
 19 21  1  0  0  0
 21 25  1  0  0  0
 21 22  2  0  0  0
 22 23  1  0  0  0
 22 58  1  0  0  0
 23 24  1  0  0  0
 24 25  2  0  0  0
 24 59  1  0  0  0
 26 35  2  0  0  0
 26 27  1  0  0  0
 27 28  2  0  0  0
 27 60  1  0  0  0
 28 29  1  0  0  0
 28 61  1  0  0  0
 29 30  1  0  0  0
 29 34  2  0  0  0
 30 31  1  0  0  0
 30 32  1  0  0  0
 30 33  1  0  0  0
 31 62  1  0  0  0
 31 63  1  0  0  0
 31 64  1  0  0  0
 32 65  1  0  0  0
 32 66  1  0  0  0
 32 67  1  0  0  0
 33 68  1  0  0  0
 33 69  1  0  0  0
 33 70  1  0  0  0
 34 35  1  0  0  0
 34 71  1  0  0  0
 35 72  1  0  0  0
 36 37  1  0  0  0
 36 73  1  0  0  0
 36 74  1  0  0  0
 37 38  1  0  0  0
 38 39  2  0  0  0
 38 40  1  0  0  0
 40 41  1  0  0  0
 41 42  1  0  0  0
 41 43  1  0  0  0
 41 44  1  0  0  0
 42 75  1  0  0  0
 42 76  1  0  0  0
 42 77  1  0  0  0
 43 78  1  0  0  0
 43 79  1  0  0  0
 43 80  1  0  0  0
 44 81  1  0  0  0
 44 82  1  0  0  0
 44 83  1  0  0  0
M  END
> <r_i_docking_score>
-0.76236738562034

$$$$
ligprep_5.maegz:55
                    3D
 Schrodinger Suite 2020-4.
 63 66  0  0  1  0            999 V2000
    2.5291   -7.6753   25.4998 C   0  0  0  0  0  0
    3.5753   -7.5512   24.5376 O   0  0  0  0  0  0
    4.0982   -6.3010   24.2571 C   0  0  0  0  0  0
    5.1811   -6.2285   23.3822 C   0  0  0  0  0  0
    5.7642   -4.9893   23.1236 C   0  0  0  0  0  0
    5.2602   -3.8399   23.7557 C   0  0  0  0  0  0
    5.8358   -2.5650   23.5923 N   0  0  0  0  0  0
    7.1617   -2.3086   23.5093 C   0  0  0  0  0  0
    8.0375   -3.1762   23.5721 O   0  0  0  0  0  0
    7.5725   -0.8158   23.3068 C   0  0  1  0  0  0
    9.0776   -0.6227   23.1620 C   0  0  0  0  0  0
    9.7929   -1.1107   22.0577 C   0  0  0  0  0  0
   11.1654   -0.8792   21.9593 C   0  0  0  0  0  0
   11.7945   -0.1601   22.9746 C   0  0  0  0  0  0
   11.1340    0.3088   24.0641 N   0  0  0  0  0  0
    9.7995    0.0701   24.1447 C   0  0  0  0  0  0
    6.8615    0.0163   22.2751 N   0  0  0  0  0  0
    6.5183   -0.4619   21.0230 C   0  0  0  0  0  0
    6.6758   -1.6446   20.7108 O   0  0  0  0  0  0
    5.9648    0.4192   19.9960 C   0  0  0  0  0  0
    5.9859    0.1311   18.6320 C   0  0  0  0  0  0
    5.3579    1.1255   17.9698 O   0  0  0  0  0  0
    4.9383    1.9409   18.9648 C   0  0  0  0  0  0
    5.2519    1.5272   20.1676 N   0  0  0  0  0  0
    6.8895    1.4041   22.5371 C   0  0  0  0  0  0
    7.9348    2.1891   22.0432 C   0  0  0  0  0  0
    7.9588    3.5525   22.3078 C   0  0  0  0  0  0
    6.9428    4.1629   23.0558 C   0  0  0  0  0  0
    6.9949    5.6966   23.2839 C   0  0  0  0  0  0
    6.7636    6.4218   21.9354 C   0  0  0  0  0  0
    8.3787    6.1139   23.8473 C   0  0  0  0  0  0
    5.9251    6.2003   24.2881 C   0  0  0  0  0  0
    5.8974    3.3601   23.5428 C   0  0  0  0  0  0
    5.8727    1.9884   23.2932 C   0  0  0  0  0  0
    4.1440   -3.9856   24.5857 C   0  0  0  0  0  0
    3.5660   -5.1889   24.8449 N   0  0  0  0  0  0
    2.2649   -8.7263   25.6112 H   0  0  0  0  0  0
    2.8432   -7.3070   26.4796 H   0  0  0  0  0  0
    1.6333   -7.1342   25.1866 H   0  0  0  0  0  0
    5.5744   -7.1267   22.9293 H   0  0  0  0  0  0
    6.6112   -4.9346   22.4542 H   0  0  0  0  0  0
    5.2090   -1.7735   23.5868 H   0  0  0  0  0  0
    7.3132   -0.3572   24.2621 H   0  0  0  0  0  0
    9.2913   -1.6644   21.2752 H   0  0  0  0  0  0
   11.7238   -1.2516   21.1109 H   0  0  0  0  0  0
   12.8545    0.0429   22.9309 H   0  0  0  0  0  0
    9.3057    0.4692   25.0183 H   0  0  0  0  0  0
    6.4022   -0.6662   18.0320 H   0  0  0  0  0  0
    4.3985    2.8277   18.6615 H   0  0  0  0  0  0
    8.7295    1.7448   21.4612 H   0  0  0  0  0  0
    8.7695    4.1405   21.9086 H   0  0  0  0  0  0
    6.8244    7.5055   22.0436 H   0  0  0  0  0  0
    5.7796    6.1936   21.5226 H   0  0  0  0  0  0
    7.5005    6.1358   21.1814 H   0  0  0  0  0  0
    8.6193    5.5655   24.7611 H   0  0  0  0  0  0
    9.1862    5.9379   23.1345 H   0  0  0  0  0  0
    8.4124    7.1776   24.0848 H   0  0  0  0  0  0
    6.0257    5.7143   25.2596 H   0  0  0  0  0  0
    6.0139    7.2736   24.4579 H   0  0  0  0  0  0
    4.9126    6.0265   23.9248 H   0  0  0  0  0  0
    5.0841    3.7793   24.1132 H   0  0  0  0  0  0
    5.0568    1.3869   23.6690 H   0  0  0  0  0  0
    3.7109   -3.1342   25.0904 H   0  0  0  0  0  0
  1  2  1  0  0  0
  1 37  1  0  0  0
  1 38  1  0  0  0
  1 39  1  0  0  0
  2  3  1  0  0  0
  3 36  2  0  0  0
  3  4  1  0  0  0
  4  5  2  0  0  0
  4 40  1  0  0  0
  5  6  1  0  0  0
  5 41  1  0  0  0
  6  7  1  0  0  0
  6 35  2  0  0  0
  7  8  1  0  0  0
  7 42  1  0  0  0
  8  9  2  0  0  0
  8 10  1  0  0  0
 10 11  1  0  0  0
 10 17  1  0  0  0
 10 43  1  0  0  0
 11 16  2  0  0  0
 11 12  1  0  0  0
 12 13  2  0  0  0
 12 44  1  0  0  0
 13 14  1  0  0  0
 13 45  1  0  0  0
 14 15  2  0  0  0
 14 46  1  0  0  0
 15 16  1  0  0  0
 16 47  1  0  0  0
 17 18  1  0  0  0
 17 25  1  0  0  0
 18 19  2  0  0  0
 18 20  1  0  0  0
 20 24  1  0  0  0
 20 21  2  0  0  0
 21 22  1  0  0  0
 21 48  1  0  0  0
 22 23  1  0  0  0
 23 24  2  0  0  0
 23 49  1  0  0  0
 25 34  2  0  0  0
 25 26  1  0  0  0
 26 27  2  0  0  0
 26 50  1  0  0  0
 27 28  1  0  0  0
 27 51  1  0  0  0
 28 29  1  0  0  0
 28 33  2  0  0  0
 29 30  1  0  0  0
 29 31  1  0  0  0
 29 32  1  0  0  0
 30 52  1  0  0  0
 30 53  1  0  0  0
 30 54  1  0  0  0
 31 55  1  0  0  0
 31 56  1  0  0  0
 31 57  1  0  0  0
 32 58  1  0  0  0
 32 59  1  0  0  0
 32 60  1  0  0  0
 33 34  1  0  0  0
 33 61  1  0  0  0
 34 62  1  0  0  0
 35 36  1  0  0  0
 35 63  1  0  0  0
M  END
> <r_i_docking_score>
-3.07892985611695

$$$$
ligprep_5.maegz:56
                    3D
 Schrodinger Suite 2020-4.
 74 77  0  0  1  0            999 V2000
   10.0850    6.7478   23.5205 C   0  0  0  0  0  0
    9.2193    7.0290   24.7737 C   0  0  0  0  0  0
    9.0131    5.7413   25.6031 C   0  0  0  0  0  0
    9.9219    8.0843   25.6466 C   0  0  0  0  0  0
    7.9652    7.6642   24.4534 O   0  0  0  0  0  0
    6.9602    7.2272   23.6251 C   0  0  0  0  0  0
    5.9468    7.8955   23.4403 O   0  0  0  0  0  0
    7.2023    5.9939   23.0414 N   0  0  0  0  0  0
    6.3212    4.7955   23.1563 C   0  0  0  0  0  0
    7.0379    4.2774   21.9013 C   0  0  0  0  0  0
    8.2348    3.4706   22.1949 N   0  0  0  0  0  0
    8.2994    2.1672   22.5177 C   0  0  0  0  0  0
    9.3666    1.6518   22.8478 O   0  0  0  0  0  0
    7.0040    1.3083   22.4567 C   0  0  1  0  0  0
    6.4955    1.0847   21.0366 C   0  0  0  0  0  0
    5.1699    1.3944   20.7081 C   0  0  0  0  0  0
    4.7269    1.2800   19.3909 C   0  0  0  0  0  0
    5.6211    0.8241   18.4255 C   0  0  0  0  0  0
    6.9105    0.5225   18.7078 N   0  0  0  0  0  0
    7.3304    0.6774   19.9855 C   0  0  0  0  0  0
    7.0247    0.0971   23.3490 N   0  0  0  0  0  0
    7.6220   -1.1004   22.9898 C   0  0  0  0  0  0
    8.1425   -1.2619   21.8865 O   0  0  0  0  0  0
    7.6915   -2.2542   23.9001 C   0  0  0  0  0  0
    8.3569   -3.4394   23.5808 C   0  0  0  0  0  0
    8.2380   -4.3055   24.6110 O   0  0  0  0  0  0
    7.4953   -3.6138   25.5032 C   0  0  0  0  0  0
    7.1502   -2.4126   25.1032 N   0  0  0  0  0  0
    6.6324    0.3515   24.6790 C   0  0  0  0  0  0
    7.5701    0.7558   25.6336 C   0  0  0  0  0  0
    7.1647    0.9766   26.9462 C   0  0  0  0  0  0
    5.8245    0.7978   27.3281 C   0  0  0  0  0  0
    5.3398    1.0121   28.7841 C   0  0  0  0  0  0
    4.2063    2.0663   28.8173 C   0  0  0  0  0  0
    6.4580    1.5131   29.7373 C   0  0  0  0  0  0
    4.8047   -0.3285   29.3447 C   0  0  0  0  0  0
    4.8988    0.3946   26.3531 C   0  0  0  0  0  0
    5.2961    0.1746   25.0396 C   0  0  0  0  0  0
    7.3713    5.7411   21.5826 C   0  0  0  0  0  0
    9.9706    7.5454   22.7866 H   0  0  0  0  0  0
   11.1436    6.6718   23.7692 H   0  0  0  0  0  0
    9.8177    5.8127   23.0283 H   0  0  0  0  0  0
    8.3930    5.9261   26.4817 H   0  0  0  0  0  0
    8.5332    4.9467   25.0354 H   0  0  0  0  0  0
    9.9693    5.3456   25.9427 H   0  0  0  0  0  0
    9.3593    8.2879   26.5587 H   0  0  0  0  0  0
   10.9248    7.7706   25.9402 H   0  0  0  0  0  0
   10.0058    9.0364   25.1201 H   0  0  0  0  0  0
    5.2680    5.0474   23.0117 H   0  0  0  0  0  0
    6.4524    4.2050   24.0628 H   0  0  0  0  0  0
    6.4417    3.7549   21.1517 H   0  0  0  0  0  0
    9.1137    3.9677   22.1386 H   0  0  0  0  0  0
    6.2932    1.9729   22.9502 H   0  0  0  0  0  0
    4.4878    1.7416   21.4706 H   0  0  0  0  0  0
    3.7115    1.5353   19.1237 H   0  0  0  0  0  0
    5.3133    0.7150   17.3969 H   0  0  0  0  0  0
    8.3695    0.4538   20.1611 H   0  0  0  0  0  0
    8.9198   -3.7687   22.7187 H   0  0  0  0  0  0
    7.2716   -4.1169   26.4321 H   0  0  0  0  0  0
    8.6079    0.8882   25.3626 H   0  0  0  0  0  0
    7.9208    1.2794   27.6537 H   0  0  0  0  0  0
    3.8649    2.2569   29.8346 H   0  0  0  0  0  0
    3.3303    1.7483   28.2493 H   0  0  0  0  0  0
    4.5353    3.0207   28.3998 H   0  0  0  0  0  0
    7.2998    0.8210   29.7886 H   0  0  0  0  0  0
    6.8399    2.4835   29.4199 H   0  0  0  0  0  0
    6.0888    1.6392   30.7575 H   0  0  0  0  0  0
    5.5671   -1.1074   29.3019 H   0  0  0  0  0  0
    4.4904   -0.2354   30.3849 H   0  0  0  0  0  0
    3.9429   -0.6941   28.7849 H   0  0  0  0  0  0
    3.8624    0.2352   26.6105 H   0  0  0  0  0  0
    4.5698   -0.1507   24.3081 H   0  0  0  0  0  0
    8.3677    5.9406   21.1836 H   0  0  0  0  0  0
    6.6186    6.2738   20.9989 H   0  0  0  0  0  0
  1  2  1  0  0  0
  1 40  1  0  0  0
  1 41  1  0  0  0
  1 42  1  0  0  0
  2  3  1  0  0  0
  2  4  1  0  0  0
  2  5  1  0  0  0
  3 43  1  0  0  0
  3 44  1  0  0  0
  3 45  1  0  0  0
  4 46  1  0  0  0
  4 47  1  0  0  0
  4 48  1  0  0  0
  5  6  1  0  0  0
  6  7  2  0  0  0
  6  8  1  0  0  0
  8 39  1  0  0  0
  8  9  1  0  0  0
  9 10  1  0  0  0
  9 49  1  0  0  0
  9 50  1  0  0  0
 10 11  1  0  0  0
 10 39  1  0  0  0
 10 51  1  0  0  0
 11 12  1  0  0  0
 11 52  1  0  0  0
 12 13  2  0  0  0
 12 14  1  0  0  0
 14 15  1  0  0  0
 14 21  1  0  0  0
 14 53  1  0  0  0
 15 20  2  0  0  0
 15 16  1  0  0  0
 16 17  2  0  0  0
 16 54  1  0  0  0
 17 18  1  0  0  0
 17 55  1  0  0  0
 18 19  2  0  0  0
 18 56  1  0  0  0
 19 20  1  0  0  0
 20 57  1  0  0  0
 21 22  1  0  0  0
 21 29  1  0  0  0
 22 23  2  0  0  0
 22 24  1  0  0  0
 24 28  1  0  0  0
 24 25  2  0  0  0
 25 26  1  0  0  0
 25 58  1  0  0  0
 26 27  1  0  0  0
 27 28  2  0  0  0
 27 59  1  0  0  0
 29 38  2  0  0  0
 29 30  1  0  0  0
 30 31  2  0  0  0
 30 60  1  0  0  0
 31 32  1  0  0  0
 31 61  1  0  0  0
 32 33  1  0  0  0
 32 37  2  0  0  0
 33 34  1  0  0  0
 33 35  1  0  0  0
 33 36  1  0  0  0
 34 62  1  0  0  0
 34 63  1  0  0  0
 34 64  1  0  0  0
 35 65  1  0  0  0
 35 66  1  0  0  0
 35 67  1  0  0  0
 36 68  1  0  0  0
 36 69  1  0  0  0
 36 70  1  0  0  0
 37 38  1  0  0  0
 37 71  1  0  0  0
 38 72  1  0  0  0
 39 73  1  0  0  0
 39 74  1  0  0  0
M  END
> <r_i_docking_score>
1.05830515902323

$$$$
ligprep_5.maegz:57
                    3D
 Schrodinger Suite 2020-4.
 69 72  0  0  1  0            999 V2000
   12.9460    1.4653   22.3077 C   0  0  0  0  0  0
   12.2032    0.3210   23.0435 C   0  0  0  0  0  0
   12.8348   -1.0430   22.6587 C   0  0  0  0  0  0
   12.4485    0.5755   24.5200 C   0  0  0  0  0  0
   10.6899    0.3353   22.7614 C   0  0  0  0  0  0
   10.2495   -0.0814   21.5092 C   0  0  0  0  0  0
    8.9173    0.0162   21.1713 C   0  0  0  0  0  0
    7.9834    0.4453   22.1110 C   0  0  0  0  0  0
    6.6615    0.6170   21.6680 N   0  0  0  0  0  0
    6.0215   -0.5071   21.1843 C   0  0  0  0  0  0
    5.1698   -0.4542   20.3071 O   0  0  0  0  0  0
    6.3359   -1.8360   21.7378 C   0  0  0  0  0  0
    5.3810   -2.7232   22.2223 C   0  0  0  0  0  0
    5.9895   -3.8650   22.6122 O   0  0  0  0  0  0
    7.2928   -3.6118   22.3618 C   0  0  0  0  0  0
    7.5215   -2.4243   21.8576 N   0  0  0  0  0  0
    5.9874    1.9773   21.8359 C   0  0  1  0  0  0
    6.8736    3.2762   21.9085 C   0  0  0  0  0  0
    8.0999    3.2340   21.9313 O   0  0  0  0  0  0
    6.2178    4.4524   21.9087 N   0  0  0  0  0  0
    6.8361    5.7789   21.9272 C   0  0  0  0  0  0
    7.1940    6.2286   23.3523 C   0  0  0  0  0  0
    6.9067    5.5808   24.3641 O   0  0  0  0  0  0
    7.8518    7.4048   23.3427 O   0  0  0  0  0  0
    8.3844    7.9656   24.5405 C   0  0  0  0  0  0
    9.7160    7.3412   24.9606 C   0  0  0  0  0  0
   10.4166    6.4425   24.1401 C   0  0  0  0  0  0
   11.6506    5.9461   24.5467 C   0  0  0  0  0  0
   12.1825    6.3484   25.7669 C   0  0  0  0  0  0
   11.4910    7.2281   26.5955 C   0  0  0  0  0  0
   10.2569    7.7231   26.1903 C   0  0  0  0  0  0
    4.7955    2.2831   20.9376 C   0  0  0  0  0  0
    3.5847    2.7468   21.4765 C   0  0  0  0  0  0
    2.5601    3.1663   20.6275 C   0  0  0  0  0  0
    2.7934    3.1488   19.2519 C   0  0  0  0  0  0
    3.9627    2.7305   18.7082 N   0  0  0  0  0  0
    4.9346    2.3039   19.5446 C   0  0  0  0  0  0
    8.3847    0.7863   23.4003 C   0  0  0  0  0  0
    9.7373    0.7622   23.7094 C   0  0  0  0  0  0
   13.8402    1.7983   22.8388 H   0  0  0  0  0  0
   12.3158    2.3445   22.1627 H   0  0  0  0  0  0
   13.3228    1.1457   21.3467 H   0  0  0  0  0  0
   12.3695   -1.8740   23.1950 H   0  0  0  0  0  0
   12.7451   -1.2627   21.5952 H   0  0  0  0  0  0
   13.9054   -1.0477   22.8600 H   0  0  0  0  0  0
   11.8370   -0.0524   25.1710 H   0  0  0  0  0  0
   13.4865    0.3471   24.7521 H   0  0  0  0  0  0
   12.2543    1.6290   24.7079 H   0  0  0  0  0  0
   10.9339   -0.4529   20.7657 H   0  0  0  0  0  0
    8.5973   -0.2731   20.1820 H   0  0  0  0  0  0
    4.3115   -2.6749   22.3293 H   0  0  0  0  0  0
    7.9954   -4.3990   22.5936 H   0  0  0  0  0  0
    5.5849    1.8953   22.8467 H   0  0  0  0  0  0
    5.2216    4.4312   21.7339 H   0  0  0  0  0  0
    7.7256    5.8056   21.2926 H   0  0  0  0  0  0
    6.1375    6.4957   21.4945 H   0  0  0  0  0  0
    8.5517    9.0287   24.3649 H   0  0  0  0  0  0
    7.6627    7.8822   25.3557 H   0  0  0  0  0  0
   10.0285    6.1360   23.1798 H   0  0  0  0  0  0
   12.1966    5.2638   23.9125 H   0  0  0  0  0  0
   13.1480    5.9799   26.0728 H   0  0  0  0  0  0
   11.9168    7.5335   27.5398 H   0  0  0  0  0  0
    9.7256    8.4154   26.8283 H   0  0  0  0  0  0
    3.4457    2.7847   22.5472 H   0  0  0  0  0  0
    1.6218    3.5211   21.0262 H   0  0  0  0  0  0
    2.0460    3.4940   18.5531 H   0  0  0  0  0  0
    5.8618    2.0053   19.0796 H   0  0  0  0  0  0
    7.6690    1.1366   24.1295 H   0  0  0  0  0  0
   10.0119    1.1035   24.6943 H   0  0  0  0  0  0
  1  2  1  0  0  0
  1 40  1  0  0  0
  1 41  1  0  0  0
  1 42  1  0  0  0
  2  3  1  0  0  0
  2  4  1  0  0  0
  2  5  1  0  0  0
  3 43  1  0  0  0
  3 44  1  0  0  0
  3 45  1  0  0  0
  4 46  1  0  0  0
  4 47  1  0  0  0
  4 48  1  0  0  0
  5 39  2  0  0  0
  5  6  1  0  0  0
  6  7  2  0  0  0
  6 49  1  0  0  0
  7  8  1  0  0  0
  7 50  1  0  0  0
  8  9  1  0  0  0
  8 38  2  0  0  0
  9 10  1  0  0  0
  9 17  1  0  0  0
 10 11  2  0  0  0
 10 12  1  0  0  0
 12 16  1  0  0  0
 12 13  2  0  0  0
 13 14  1  0  0  0
 13 51  1  0  0  0
 14 15  1  0  0  0
 15 16  2  0  0  0
 15 52  1  0  0  0
 17 18  1  0  0  0
 17 32  1  0  0  0
 17 53  1  0  0  0
 18 19  2  0  0  0
 18 20  1  0  0  0
 20 21  1  0  0  0
 20 54  1  0  0  0
 21 22  1  0  0  0
 21 55  1  0  0  0
 21 56  1  0  0  0
 22 23  2  0  0  0
 22 24  1  0  0  0
 24 25  1  0  0  0
 25 26  1  0  0  0
 25 57  1  0  0  0
 25 58  1  0  0  0
 26 31  2  0  0  0
 26 27  1  0  0  0
 27 28  2  0  0  0
 27 59  1  0  0  0
 28 29  1  0  0  0
 28 60  1  0  0  0
 29 30  2  0  0  0
 29 61  1  0  0  0
 30 31  1  0  0  0
 30 62  1  0  0  0
 31 63  1  0  0  0
 32 37  2  0  0  0
 32 33  1  0  0  0
 33 34  2  0  0  0
 33 64  1  0  0  0
 34 35  1  0  0  0
 34 65  1  0  0  0
 35 36  2  0  0  0
 35 66  1  0  0  0
 36 37  1  0  0  0
 37 67  1  0  0  0
 38 39  1  0  0  0
 38 68  1  0  0  0
 39 69  1  0  0  0
M  END
> <r_i_docking_score>
-2.24852497485581

$$$$
ligprep_5.maegz:58
                    3D
 Schrodinger Suite 2020-4.
 69 72  0  0  1  0            999 V2000
    1.5449   -6.9586   23.0043 C   0  0  0  0  0  0
    2.2859   -6.7055   24.3398 C   0  0  0  0  0  0
    1.2284   -6.3081   25.4035 C   0  0  0  0  0  0
    2.9363   -8.0268   24.8140 C   0  0  0  0  0  0
    3.3705   -5.6206   24.1183 C   0  0  0  0  0  0
    3.2843   -4.3480   24.7034 C   0  0  0  0  0  0
    4.2236   -3.3654   24.4064 C   0  0  0  0  0  0
    5.2795   -3.6391   23.5341 C   0  0  0  0  0  0
    6.1776   -2.5953   23.1728 N   0  0  0  0  0  0
    6.1791   -2.2099   21.8406 C   0  0  0  0  0  0
    5.5696   -2.8526   20.9724 O   0  0  0  0  0  0
    6.8628   -0.9969   21.3816 C   0  0  0  0  0  0
    6.9770   -0.6315   20.0365 C   0  0  0  0  0  0
    7.5695    0.5808   19.9546 O   0  0  0  0  0  0
    7.7801    0.9013   21.2508 C   0  0  0  0  0  0
    7.3588    0.0003   22.1040 N   0  0  0  0  0  0
    7.1208   -2.0719   24.2212 C   0  0  1  0  0  0
    6.5386   -0.9176   25.1016 C   0  0  0  0  0  0
    6.9415   -0.7666   26.2565 O   0  0  0  0  0  0
    5.5700   -0.1501   24.5683 N   0  0  0  0  0  0
    4.8042    0.8577   25.3017 C   0  0  0  0  0  0
    3.6463    0.2480   26.1310 C   0  0  0  0  0  0
    4.1060   -0.3369   27.3944 N   0  0  0  0  0  0
    3.2330   -1.4036   27.8943 C   0  0  0  0  0  0
    3.8520   -2.0614   29.1488 C   0  0  0  0  0  0
    4.1117   -1.0793   30.1504 O   0  0  0  0  0  0
    4.9838   -0.0471   29.6937 C   0  0  0  0  0  0
    4.4101    0.6488   28.4414 C   0  0  0  0  0  0
    7.7233   -3.2030   25.0571 C   0  0  0  0  0  0
    8.9821   -3.7283   24.7356 C   0  0  0  0  0  0
    9.5281   -4.7586   25.5080 C   0  0  0  0  0  0
    8.7878   -5.2504   26.5820 C   0  0  0  0  0  0
    7.5719   -4.7627   26.9248 N   0  0  0  0  0  0
    7.0645   -3.7565   26.1708 C   0  0  0  0  0  0
    5.4131   -4.9245   22.9977 C   0  0  0  0  0  0
    4.4571   -5.8936   23.2750 C   0  0  0  0  0  0
    0.7602   -7.7083   23.1150 H   0  0  0  0  0  0
    2.2198   -7.3173   22.2255 H   0  0  0  0  0  0
    1.0751   -6.0475   22.6298 H   0  0  0  0  0  0
    1.6875   -6.1038   26.3719 H   0  0  0  0  0  0
    0.6637   -5.4238   25.1045 H   0  0  0  0  0  0
    0.4985   -7.1039   25.5604 H   0  0  0  0  0  0
    3.5477   -7.8772   25.7053 H   0  0  0  0  0  0
    2.1893   -8.7853   25.0539 H   0  0  0  0  0  0
    3.5699   -8.4528   24.0402 H   0  0  0  0  0  0
    2.4751   -4.0830   25.3652 H   0  0  0  0  0  0
    4.1061   -2.3847   24.8375 H   0  0  0  0  0  0
    6.6886   -1.0969   19.1035 H   0  0  0  0  0  0
    8.2365    1.8616   21.4444 H   0  0  0  0  0  0
    7.9681   -1.6043   23.7266 H   0  0  0  0  0  0
    5.2879   -0.3133   23.6102 H   0  0  0  0  0  0
    5.4722    1.4620   25.9174 H   0  0  0  0  0  0
    4.3859    1.5538   24.5739 H   0  0  0  0  0  0
    2.9412    1.0379   26.3955 H   0  0  0  0  0  0
    3.1026   -0.4692   25.5163 H   0  0  0  0  0  0
    2.2347   -1.0133   28.1000 H   0  0  0  0  0  0
    3.1124   -2.1618   27.1194 H   0  0  0  0  0  0
    4.7696   -2.5958   28.8939 H   0  0  0  0  0  0
    3.1648   -2.8022   29.5577 H   0  0  0  0  0  0
    5.9696   -0.4528   29.4744 H   0  0  0  0  0  0
    5.1181    0.6788   30.4962 H   0  0  0  0  0  0
    5.1418    1.3684   28.0753 H   0  0  0  0  0  0
    3.5169    1.2247   28.6896 H   0  0  0  0  0  0
    9.5371   -3.3433   23.8920 H   0  0  0  0  0  0
   10.4989   -5.1731   25.2754 H   0  0  0  0  0  0
    9.1687   -6.0494   27.1973 H   0  0  0  0  0  0
    6.0970   -3.3904   26.4805 H   0  0  0  0  0  0
    6.2299   -5.1566   22.3291 H   0  0  0  0  0  0
    4.5573   -6.8528   22.7960 H   0  0  0  0  0  0
  1  2  1  0  0  0
  1 37  1  0  0  0
  1 38  1  0  0  0
  1 39  1  0  0  0
  2  3  1  0  0  0
  2  4  1  0  0  0
  2  5  1  0  0  0
  3 40  1  0  0  0
  3 41  1  0  0  0
  3 42  1  0  0  0
  4 43  1  0  0  0
  4 44  1  0  0  0
  4 45  1  0  0  0
  5 36  2  0  0  0
  5  6  1  0  0  0
  6  7  2  0  0  0
  6 46  1  0  0  0
  7  8  1  0  0  0
  7 47  1  0  0  0
  8  9  1  0  0  0
  8 35  2  0  0  0
  9 10  1  0  0  0
  9 17  1  0  0  0
 10 11  2  0  0  0
 10 12  1  0  0  0
 12 16  1  0  0  0
 12 13  2  0  0  0
 13 14  1  0  0  0
 13 48  1  0  0  0
 14 15  1  0  0  0
 15 16  2  0  0  0
 15 49  1  0  0  0
 17 18  1  0  0  0
 17 29  1  0  0  0
 17 50  1  0  0  0
 18 19  2  0  0  0
 18 20  1  0  0  0
 20 21  1  0  0  0
 20 51  1  0  0  0
 21 22  1  0  0  0
 21 52  1  0  0  0
 21 53  1  0  0  0
 22 23  1  0  0  0
 22 54  1  0  0  0
 22 55  1  0  0  0
 23 28  1  0  0  0
 23 24  1  0  0  0
 24 25  1  0  0  0
 24 56  1  0  0  0
 24 57  1  0  0  0
 25 26  1  0  0  0
 25 58  1  0  0  0
 25 59  1  0  0  0
 26 27  1  0  0  0
 27 28  1  0  0  0
 27 60  1  0  0  0
 27 61  1  0  0  0
 28 62  1  0  0  0
 28 63  1  0  0  0
 29 34  2  0  0  0
 29 30  1  0  0  0
 30 31  2  0  0  0
 30 64  1  0  0  0
 31 32  1  0  0  0
 31 65  1  0  0  0
 32 33  2  0  0  0
 32 66  1  0  0  0
 33 34  1  0  0  0
 34 67  1  0  0  0
 35 36  1  0  0  0
 35 68  1  0  0  0
 36 69  1  0  0  0
M  END
> <r_i_docking_score>
-4.04101290917867

$$$$
ligprep_5.maegz:59
                    3D
 Schrodinger Suite 2020-4.
 68 70  0  0  1  0            999 V2000
    6.9568   -5.1381   22.1427 C   0  0  0  0  0  0
    5.9031   -4.0914   22.5421 C   0  0  0  0  0  0
    5.5696   -3.2343   21.4527 O   0  0  0  0  0  0
    6.3696   -2.1986   21.1079 C   0  0  0  0  0  0
    7.4094   -1.8761   21.6795 O   0  0  0  0  0  0
    5.8880   -1.4690   19.8472 C   0  0  0  0  0  0
    5.6715    0.0552   19.9883 C   0  0  0  0  0  0
    6.9174    0.9169   19.6954 C   0  0  0  0  0  0
    7.9696    0.8114   20.7080 N   0  0  0  0  0  0
    8.3348    1.8169   21.5216 C   0  0  0  0  0  0
    7.7795    2.9127   21.5087 O   0  0  0  0  0  0
    9.5144    1.5438   22.4959 C   0  0  1  0  0  0
   10.0301    2.8021   23.1811 C   0  0  0  0  0  0
   11.2825    3.3261   22.8267 C   0  0  0  0  0  0
   11.7335    4.5186   23.3950 C   0  0  0  0  0  0
   10.9051    5.1708   24.3079 C   0  0  0  0  0  0
    9.6877    4.6939   24.6713 N   0  0  0  0  0  0
    9.2696    3.5301   24.1106 C   0  0  0  0  0  0
    9.2845    0.4540   23.5060 N   0  0  0  0  0  0
   10.0134   -0.7164   23.4893 C   0  0  0  0  0  0
    9.6234   -1.7688   24.0077 O   0  0  0  0  0  0
   11.3281   -0.7259   22.8725 C   0  0  0  0  0  0
   11.9291   -1.8461   22.3073 C   0  0  0  0  0  0
   13.1783   -1.5111   21.9093 O   0  0  0  0  0  0
   13.2884   -0.2214   22.3079 C   0  0  0  0  0  0
   12.2268    0.2512   22.9149 N   0  0  0  0  0  0
    8.1551    0.4882   24.3738 C   0  0  0  0  0  0
    8.3695    0.6169   25.7483 C   0  0  0  0  0  0
    7.2960    0.6261   26.6343 C   0  0  0  0  0  0
    5.9783    0.4973   26.1673 C   0  0  0  0  0  0
    4.7546    0.5012   27.1184 C   0  0  0  0  0  0
    3.8290    1.6921   26.7687 C   0  0  0  0  0  0
    5.1409    0.6368   28.6157 C   0  0  0  0  0  0
    3.9639   -0.8208   26.9613 C   0  0  0  0  0  0
    5.7734    0.3578   24.7878 C   0  0  0  0  0  0
    6.8452    0.3483   23.9033 C   0  0  0  0  0  0
    7.1588   -5.8204   22.9691 H   0  0  0  0  0  0
    6.6227   -5.7352   21.2933 H   0  0  0  0  0  0
    7.9037   -4.6670   21.8714 H   0  0  0  0  0  0
    6.2446   -3.5118   23.4021 H   0  0  0  0  0  0
    4.9926   -4.6031   22.8548 H   0  0  0  0  0  0
    4.9641   -1.9314   19.5080 H   0  0  0  0  0  0
    6.5988   -1.6535   19.0421 H   0  0  0  0  0  0
    5.2488    0.3115   20.9615 H   0  0  0  0  0  0
    4.8963    0.3473   19.2772 H   0  0  0  0  0  0
    6.6041    1.9461   19.5089 H   0  0  0  0  0  0
    7.3629    0.5884   18.7546 H   0  0  0  0  0  0
    8.4138   -0.0929   20.8074 H   0  0  0  0  0  0
   10.2778    1.2327   21.7848 H   0  0  0  0  0  0
   11.8962    2.8255   22.0925 H   0  0  0  0  0  0
   12.6932    4.9315   23.1211 H   0  0  0  0  0  0
   11.2119    6.0997   24.7651 H   0  0  0  0  0  0
    8.2794    3.2031   24.3927 H   0  0  0  0  0  0
   11.5953   -2.8538   22.1085 H   0  0  0  0  0  0
   14.2276    0.2692   22.1017 H   0  0  0  0  0  0
    9.3758    0.7132   26.1311 H   0  0  0  0  0  0
    7.5206    0.7361   27.6835 H   0  0  0  0  0  0
    2.9587    1.7337   27.4265 H   0  0  0  0  0  0
    3.4514    1.6342   25.7468 H   0  0  0  0  0  0
    4.3541    2.6444   26.8658 H   0  0  0  0  0  0
    5.7762   -0.1866   28.9456 H   0  0  0  0  0  0
    5.6716    1.5698   28.8142 H   0  0  0  0  0  0
    4.2596    0.6342   29.2599 H   0  0  0  0  0  0
    4.5912   -1.6872   27.1785 H   0  0  0  0  0  0
    3.1084   -0.8616   27.6375 H   0  0  0  0  0  0
    3.5711   -0.9505   25.9517 H   0  0  0  0  0  0
    4.7770    0.2530   24.3847 H   0  0  0  0  0  0
    6.6320    0.2199   22.8577 H   0  0  0  0  0  0
  1  2  1  0  0  0
  1 37  1  0  0  0
  1 38  1  0  0  0
  1 39  1  0  0  0
  2  3  1  0  0  0
  2 40  1  0  0  0
  2 41  1  0  0  0
  3  4  1  0  0  0
  4  5  2  0  0  0
  4  6  1  0  0  0
  6  7  1  0  0  0
  6 42  1  0  0  0
  6 43  1  0  0  0
  7  8  1  0  0  0
  7 44  1  0  0  0
  7 45  1  0  0  0
  8  9  1  0  0  0
  8 46  1  0  0  0
  8 47  1  0  0  0
  9 10  1  0  0  0
  9 48  1  0  0  0
 10 11  2  0  0  0
 10 12  1  0  0  0
 12 13  1  0  0  0
 12 19  1  0  0  0
 12 49  1  0  0  0
 13 18  2  0  0  0
 13 14  1  0  0  0
 14 15  2  0  0  0
 14 50  1  0  0  0
 15 16  1  0  0  0
 15 51  1  0  0  0
 16 17  2  0  0  0
 16 52  1  0  0  0
 17 18  1  0  0  0
 18 53  1  0  0  0
 19 20  1  0  0  0
 19 27  1  0  0  0
 20 21  2  0  0  0
 20 22  1  0  0  0
 22 26  1  0  0  0
 22 23  2  0  0  0
 23 24  1  0  0  0
 23 54  1  0  0  0
 24 25  1  0  0  0
 25 26  2  0  0  0
 25 55  1  0  0  0
 27 36  2  0  0  0
 27 28  1  0  0  0
 28 29  2  0  0  0
 28 56  1  0  0  0
 29 30  1  0  0  0
 29 57  1  0  0  0
 30 31  1  0  0  0
 30 35  2  0  0  0
 31 32  1  0  0  0
 31 33  1  0  0  0
 31 34  1  0  0  0
 32 58  1  0  0  0
 32 59  1  0  0  0
 32 60  1  0  0  0
 33 61  1  0  0  0
 33 62  1  0  0  0
 33 63  1  0  0  0
 34 64  1  0  0  0
 34 65  1  0  0  0
 34 66  1  0  0  0
 35 36  1  0  0  0
 35 67  1  0  0  0
 36 68  1  0  0  0
M  END
> <r_i_docking_score>
-3.49968137726168

$$$$
ligprep_5.maegz:60
                    3D
 Schrodinger Suite 2020-4.
 68 71  0  0  1  0            999 V2000
    7.2824   -6.4492   22.6681 C   0  0  0  0  0  0
    7.0925   -5.0340   22.1050 C   0  0  0  0  0  0
    6.9689   -4.0835   23.1581 O   0  0  0  0  0  0
    5.8237   -3.9347   23.8686 C   0  0  0  0  0  0
    4.7792   -4.5572   23.6569 O   0  0  0  0  0  0
    5.9731   -2.9317   24.9308 C   0  0  0  0  0  0
    4.9999   -2.6596   25.7890 N   0  0  0  0  0  0
    5.4690   -1.7037   26.5525 C   0  0  0  0  0  0
    6.7278   -1.3106   26.2493 O   0  0  0  0  0  0
    7.0703   -2.0986   25.2024 C   0  0  0  0  0  0
    8.4555   -1.8716   24.6059 C   0  0  0  0  0  0
    8.5519   -0.7441   23.6680 N   0  0  0  0  0  0
    7.6745   -0.4291   22.6940 C   0  0  0  0  0  0
    6.5912   -0.9961   22.5476 O   0  0  0  0  0  0
    8.0938    0.7134   21.7264 C   0  0  1  0  0  0
    7.0039    1.0015   20.6883 C   0  0  0  0  0  0
    5.7694    1.6011   20.9971 C   0  0  0  0  0  0
    4.8176    1.8140   19.9999 C   0  0  0  0  0  0
    5.1061    1.3822   18.7082 C   0  0  0  0  0  0
    6.2561    0.7470   18.3838 N   0  0  0  0  0  0
    7.1707    0.5615   19.3671 C   0  0  0  0  0  0
    8.6238    1.9405   22.4336 N   0  0  0  0  0  0
    9.9895    2.0584   22.6213 C   0  0  0  0  0  0
   10.7596    1.1451   22.3078 O   0  0  0  0  0  0
   10.6060    3.2702   23.1779 C   0  0  0  0  0  0
   11.9703    3.5583   23.0902 C   0  0  0  0  0  0
   12.2110    4.7429   23.6979 O   0  0  0  0  0  0
   10.9927    5.0942   24.1666 C   0  0  0  0  0  0
   10.0442    4.2259   23.9108 N   0  0  0  0  0  0
    7.7189    2.8991   22.9339 C   0  0  0  0  0  0
    7.4696    4.0712   22.2180 C   0  0  0  0  0  0
    6.5558    4.9983   22.7041 C   0  0  0  0  0  0
    5.8898    4.7836   23.9199 C   0  0  0  0  0  0
    4.8664    5.8365   24.4153 C   0  0  0  0  0  0
    5.5651    7.2081   24.5837 C   0  0  0  0  0  0
    4.2232    5.4740   25.7800 C   0  0  0  0  0  0
    3.7199    5.9692   23.3831 C   0  0  0  0  0  0
    6.1726    3.6118   24.6422 C   0  0  0  0  0  0
    7.0811    2.6757   24.1556 C   0  0  0  0  0  0
    7.5698   -7.1587   21.8980 H   0  0  0  0  0  0
    8.0632   -6.4530   23.4288 H   0  0  0  0  0  0
    6.3574   -6.8192   23.1084 H   0  0  0  0  0  0
    6.2358   -4.9882   21.4303 H   0  0  0  0  0  0
    7.9694   -4.7606   21.5171 H   0  0  0  0  0  0
    4.9906   -1.1901   27.3731 H   0  0  0  0  0  0
    8.8422   -2.7615   24.1096 H   0  0  0  0  0  0
    9.1664   -1.6856   25.4119 H   0  0  0  0  0  0
    9.4369   -0.2544   23.6497 H   0  0  0  0  0  0
    8.9166    0.2565   21.1747 H   0  0  0  0  0  0
    5.5269    1.8941   22.0063 H   0  0  0  0  0  0
    3.8775    2.2941   20.2271 H   0  0  0  0  0  0
    4.3954    1.5248   17.9097 H   0  0  0  0  0  0
    8.0559    0.0264   19.0626 H   0  0  0  0  0  0
   12.8145    3.0637   22.6301 H   0  0  0  0  0  0
   10.9379    6.0216   24.7170 H   0  0  0  0  0  0
    7.9696    4.2603   21.2807 H   0  0  0  0  0  0
    6.3616    5.8824   22.1141 H   0  0  0  0  0  0
    4.8753    7.9673   24.9549 H   0  0  0  0  0  0
    5.9672    7.5842   23.6425 H   0  0  0  0  0  0
    6.3939    7.1482   25.2902 H   0  0  0  0  0  0
    3.6758    4.5315   25.7323 H   0  0  0  0  0  0
    4.9708    5.3889   26.5698 H   0  0  0  0  0  0
    3.5104    6.2353   26.1011 H   0  0  0  0  0  0
    3.2113    5.0165   23.2292 H   0  0  0  0  0  0
    2.9677    6.6904   23.7059 H   0  0  0  0  0  0
    4.0782    6.3028   22.4085 H   0  0  0  0  0  0
    5.6916    3.3977   25.5834 H   0  0  0  0  0  0
    7.2773    1.7763   24.7217 H   0  0  0  0  0  0
  1  2  1  0  0  0
  1 40  1  0  0  0
  1 41  1  0  0  0
  1 42  1  0  0  0
  2  3  1  0  0  0
  2 43  1  0  0  0
  2 44  1  0  0  0
  3  4  1  0  0  0
  4  5  2  0  0  0
  4  6  1  0  0  0
  6 10  2  0  0  0
  6  7  1  0  0  0
  7  8  2  0  0  0
  8  9  1  0  0  0
  8 45  1  0  0  0
  9 10  1  0  0  0
 10 11  1  0  0  0
 11 12  1  0  0  0
 11 46  1  0  0  0
 11 47  1  0  0  0
 12 13  1  0  0  0
 12 48  1  0  0  0
 13 14  2  0  0  0
 13 15  1  0  0  0
 15 16  1  0  0  0
 15 22  1  0  0  0
 15 49  1  0  0  0
 16 21  2  0  0  0
 16 17  1  0  0  0
 17 18  2  0  0  0
 17 50  1  0  0  0
 18 19  1  0  0  0
 18 51  1  0  0  0
 19 20  2  0  0  0
 19 52  1  0  0  0
 20 21  1  0  0  0
 21 53  1  0  0  0
 22 23  1  0  0  0
 22 30  1  0  0  0
 23 24  2  0  0  0
 23 25  1  0  0  0
 25 29  1  0  0  0
 25 26  2  0  0  0
 26 27  1  0  0  0
 26 54  1  0  0  0
 27 28  1  0  0  0
 28 29  2  0  0  0
 28 55  1  0  0  0
 30 39  2  0  0  0
 30 31  1  0  0  0
 31 32  2  0  0  0
 31 56  1  0  0  0
 32 33  1  0  0  0
 32 57  1  0  0  0
 33 34  1  0  0  0
 33 38  2  0  0  0
 34 35  1  0  0  0
 34 36  1  0  0  0
 34 37  1  0  0  0
 35 58  1  0  0  0
 35 59  1  0  0  0
 35 60  1  0  0  0
 36 61  1  0  0  0
 36 62  1  0  0  0
 36 63  1  0  0  0
 37 64  1  0  0  0
 37 65  1  0  0  0
 37 66  1  0  0  0
 38 39  1  0  0  0
 38 67  1  0  0  0
 39 68  1  0  0  0
M  END
> <r_i_docking_score>
-1.57446462570958

$$$$
ligprep_5.maegz:61
                    3D
 Schrodinger Suite 2020-4.
 57 60  0  0  1  0            999 V2000
    7.6837   -5.4770   27.2487 C   0  0  0  0  0  0
    7.8810   -4.1879   26.6880 O   0  0  0  0  0  0
    9.1164   -4.0727   25.9958 C   0  0  0  0  0  0
    9.1675   -2.7386   25.2408 C   0  0  0  0  0  0
    8.9983   -1.4890   26.1388 C   0  0  0  0  0  0
    9.5301   -0.2848   25.5078 N   0  0  1  0  0  0
    8.7434    0.1410   24.3500 C   0  0  0  0  0  0
    9.4071    1.2994   23.5301 C   0  0  1  0  0  0
    8.5913    1.4335   22.1911 C   0  0  0  0  0  0
    9.1733    1.5478   21.1082 O   0  0  0  0  0  0
    7.2431    1.4670   22.2873 N   0  0  0  0  0  0
    6.3233    1.5807   21.2292 C   0  0  0  0  0  0
    6.5112    0.9133   20.0066 C   0  0  0  0  0  0
    5.6444    0.9728   18.9711 N   0  0  0  0  0  0
    4.5298    1.7132   19.1435 C   0  0  0  0  0  0
    4.1943    2.4096   20.3240 C   0  0  0  0  0  0
    2.9933    3.1467   20.4613 C   0  0  0  0  0  0
    2.7149    3.8071   21.6532 C   0  0  0  0  0  0
    3.6088    3.7570   22.7165 C   0  0  0  0  0  0
    4.8017    3.0475   22.6080 C   0  0  0  0  0  0
    5.1239    2.3471   21.4074 C   0  0  0  0  0  0
    9.3170    2.6563   24.2901 C   0  0  0  0  0  0
   10.1886    3.7426   23.6302 C   0  0  0  0  0  0
   11.5621    3.3504   23.6145 O   0  0  0  0  0  0
   11.8262    2.0798   23.1403 C   0  0  0  0  0  0
   13.1342    1.8740   22.7083 C   0  0  0  0  0  0
   13.5467    0.6062   22.3082 C   0  0  0  0  0  0
   12.6510   -0.4580   22.3437 C   0  0  0  0  0  0
   13.1701   -2.0429   21.9064 Cl  0  0  0  0  0  0
   11.3372   -0.2452   22.7499 C   0  0  0  0  0  0
   10.8880    1.0221   23.1581 C   0  0  0  0  0  0
    6.7609   -5.4917   27.8270 H   0  0  0  0  0  0
    7.6039   -6.2335   26.4682 H   0  0  0  0  0  0
    8.5046   -5.7527   27.9099 H   0  0  0  0  0  0
    9.2276   -4.8846   25.2743 H   0  0  0  0  0  0
    9.9482   -4.1491   26.6984 H   0  0  0  0  0  0
    8.3917   -2.7520   24.4753 H   0  0  0  0  0  0
   10.1166   -2.6895   24.7060 H   0  0  0  0  0  0
    9.5548   -1.6298   27.0668 H   0  0  0  0  0  0
    7.9574   -1.3520   26.4420 H   0  0  0  0  0  0
    9.6153    0.4559   26.1951 H   0  0  0  0  0  0
    7.7528    0.4363   24.7022 H   0  0  0  0  0  0
    8.5944   -0.7098   23.6841 H   0  0  0  0  0  0
    6.8452    1.4905   23.2112 H   0  0  0  0  0  0
    7.3790    0.2960   19.8332 H   0  0  0  0  0  0
    3.8515    1.7469   18.3080 H   0  0  0  0  0  0
    2.3057    3.2044   19.6301 H   0  0  0  0  0  0
    1.7981    4.3706   21.7514 H   0  0  0  0  0  0
    3.3791    4.2801   23.6320 H   0  0  0  0  0  0
    5.4850    3.0303   23.4421 H   0  0  0  0  0  0
    9.6630    2.5219   25.3140 H   0  0  0  0  0  0
    8.2863    3.0037   24.3773 H   0  0  0  0  0  0
   10.0978    4.6804   24.1790 H   0  0  0  0  0  0
    9.8498    3.9347   22.6101 H   0  0  0  0  0  0
   13.8372    2.6930   22.7079 H   0  0  0  0  0  0
   14.5605    0.4565   21.9764 H   0  0  0  0  0  0
   10.6533   -1.0806   22.7438 H   0  0  0  0  0  0
  1  2  1  0  0  0
  1 32  1  0  0  0
  1 33  1  0  0  0
  1 34  1  0  0  0
  2  3  1  0  0  0
  3  4  1  0  0  0
  3 35  1  0  0  0
  3 36  1  0  0  0
  4  5  1  0  0  0
  4 37  1  0  0  0
  4 38  1  0  0  0
  5  6  1  0  0  0
  5 39  1  0  0  0
  5 40  1  0  0  0
  6  7  1  0  0  0
  6 41  1  0  0  0
  7  8  1  0  0  0
  7 42  1  0  0  0
  7 43  1  0  0  0
  8 31  1  0  0  0
  8  9  1  0  0  0
  8 22  1  0  0  0
  9 10  2  0  0  0
  9 11  1  0  0  0
 11 12  1  0  0  0
 11 44  1  0  0  0
 12 21  2  0  0  0
 12 13  1  0  0  0
 13 14  2  0  0  0
 13 45  1  0  0  0
 14 15  1  0  0  0
 15 16  2  0  0  0
 15 46  1  0  0  0
 16 21  1  0  0  0
 16 17  1  0  0  0
 17 18  2  0  0  0
 17 47  1  0  0  0
 18 19  1  0  0  0
 18 48  1  0  0  0
 19 20  2  0  0  0
 19 49  1  0  0  0
 20 21  1  0  0  0
 20 50  1  0  0  0
 22 23  1  0  0  0
 22 51  1  0  0  0
 22 52  1  0  0  0
 23 24  1  0  0  0
 23 53  1  0  0  0
 23 54  1  0  0  0
 24 25  1  0  0  0
 25 31  2  0  0  0
 25 26  1  0  0  0
 26 27  2  0  0  0
 26 55  1  0  0  0
 27 28  1  0  0  0
 27 56  1  0  0  0
 28 29  1  0  0  0
 28 30  2  0  0  0
 30 31  1  0  0  0
 30 57  1  0  0  0
M  END
> <r_i_docking_score>
-6.51557532129103

$$$$
ligprep_5.maegz:62
                    3D
 Schrodinger Suite 2020-4.
 57 61  0  0  1  0            999 V2000
    4.1939    2.5916   19.0291 C   0  0  0  0  0  0
    5.0770    1.4410   19.1143 N   0  0  0  0  0  0
    5.6711    0.7471   18.0976 C   0  0  0  0  0  0
    6.3702   -0.2757   18.7107 C   0  0  0  0  0  0
    6.1361   -0.1212   20.0832 C   0  0  0  0  0  0
    6.6962   -0.8988   21.2533 C   0  0  0  0  0  0
    6.3287   -2.3156   21.2583 N   0  0  2  0  0  0
    6.9336   -3.1057   22.3491 C   0  0  0  0  0  0
    6.5502   -2.7415   23.8386 C   0  0  1  0  0  0
    7.2885   -1.4268   24.2937 C   0  0  0  0  0  0
    6.7023   -0.5923   24.9889 O   0  0  0  0  0  0
    8.5648   -1.2769   23.8665 N   0  0  0  0  0  0
    9.4477   -0.1783   23.9292 C   0  0  0  0  0  0
    9.0990    1.0809   24.4494 C   0  0  0  0  0  0
    9.9175    2.1580   24.4439 N   0  0  0  0  0  0
   11.1467    2.0043   23.9080 C   0  0  0  0  0  0
   11.6409    0.8005   23.3675 C   0  0  0  0  0  0
   12.9439    0.6886   22.8224 C   0  0  0  0  0  0
   13.3774   -0.5268   22.3080 C   0  0  0  0  0  0
   12.5417   -1.6377   22.3063 C   0  0  0  0  0  0
   11.2542   -1.5567   22.8261 C   0  0  0  0  0  0
   10.7653   -0.3329   23.3777 C   0  0  0  0  0  0
    4.9986   -2.5869   23.9387 C   0  0  0  0  0  0
    4.4444   -2.7417   25.3651 C   0  0  0  0  0  0
    4.7803   -4.0356   25.8560 O   0  0  0  0  0  0
    6.1236   -4.3457   25.8110 C   0  0  0  0  0  0
    6.5495   -5.2527   26.7826 C   0  0  0  0  0  0
    7.8822   -5.6525   26.8226 C   0  0  0  0  0  0
    8.7724   -5.1755   25.8655 C   0  0  0  0  0  0
   10.4252   -5.6473   25.9073 Cl  0  0  0  0  0  0
    8.3394   -4.2932   24.8805 C   0  0  0  0  0  0
    7.0143   -3.8275   24.8398 C   0  0  0  0  0  0
    5.3407    0.9046   20.3097 N   0  0  0  0  0  0
    4.3749    3.1416   18.1054 H   0  0  0  0  0  0
    4.3633    3.2577   19.8759 H   0  0  0  0  0  0
    3.1631    2.2481   19.0420 H   0  0  0  0  0  0
    5.5522    1.0528   17.0703 H   0  0  0  0  0  0
    6.9842   -1.0197   18.2269 H   0  0  0  0  0  0
    7.7799   -0.7808   21.2978 H   0  0  0  0  0  0
    6.2997   -0.4403   22.1572 H   0  0  0  0  0  0
    6.6125   -2.7057   20.3662 H   0  0  0  0  0  0
    6.6060   -4.1327   22.1756 H   0  0  0  0  0  0
    8.0141   -3.1458   22.1984 H   0  0  0  0  0  0
    8.9400   -2.0626   23.3592 H   0  0  0  0  0  0
    8.1296    1.2769   24.8812 H   0  0  0  0  0  0
   11.7724    2.8833   23.9098 H   0  0  0  0  0  0
   13.5969    1.5507   22.8156 H   0  0  0  0  0  0
   14.3695   -0.6085   21.8961 H   0  0  0  0  0  0
   12.8942   -2.5708   21.8949 H   0  0  0  0  0  0
   10.6306   -2.4372   22.8012 H   0  0  0  0  0  0
    4.6869   -1.6408   23.5072 H   0  0  0  0  0  0
    4.5164   -3.3448   23.3196 H   0  0  0  0  0  0
    4.8458   -1.9744   26.0304 H   0  0  0  0  0  0
    3.3596   -2.6328   25.3629 H   0  0  0  0  0  0
    5.8482   -5.6404   27.5107 H   0  0  0  0  0  0
    8.2167   -6.3459   27.5822 H   0  0  0  0  0  0
    9.0630   -3.9435   24.1603 H   0  0  0  0  0  0
  1  2  1  0  0  0
  1 34  1  0  0  0
  1 35  1  0  0  0
  1 36  1  0  0  0
  2 33  1  0  0  0
  2  3  1  0  0  0
  3  4  2  0  0  0
  3 37  1  0  0  0
  4  5  1  0  0  0
  4 38  1  0  0  0
  5  6  1  0  0  0
  5 33  2  0  0  0
  6  7  1  0  0  0
  6 39  1  0  0  0
  6 40  1  0  0  0
  7  8  1  0  0  0
  7 41  1  0  0  0
  8  9  1  0  0  0
  8 42  1  0  0  0
  8 43  1  0  0  0
  9 32  1  0  0  0
  9 10  1  0  0  0
  9 23  1  0  0  0
 10 11  2  0  0  0
 10 12  1  0  0  0
 12 13  1  0  0  0
 12 44  1  0  0  0
 13 22  2  0  0  0
 13 14  1  0  0  0
 14 15  2  0  0  0
 14 45  1  0  0  0
 15 16  1  0  0  0
 16 17  2  0  0  0
 16 46  1  0  0  0
 17 22  1  0  0  0
 17 18  1  0  0  0
 18 19  2  0  0  0
 18 47  1  0  0  0
 19 20  1  0  0  0
 19 48  1  0  0  0
 20 21  2  0  0  0
 20 49  1  0  0  0
 21 22  1  0  0  0
 21 50  1  0  0  0
 23 24  1  0  0  0
 23 51  1  0  0  0
 23 52  1  0  0  0
 24 25  1  0  0  0
 24 53  1  0  0  0
 24 54  1  0  0  0
 25 26  1  0  0  0
 26 32  2  0  0  0
 26 27  1  0  0  0
 27 28  2  0  0  0
 27 55  1  0  0  0
 28 29  1  0  0  0
 28 56  1  0  0  0
 29 30  1  0  0  0
 29 31  2  0  0  0
 31 32  1  0  0  0
 31 57  1  0  0  0
M  END
> <r_i_docking_score>
-6.98743684755094

$$$$
ligprep_5.maegz:63
                    3D
 Schrodinger Suite 2020-4.
 54 57  0  0  1  0            999 V2000
   11.2347    6.0820   23.1897 C   0  0  0  0  0  0
   11.6068    4.6636   23.0010 N   0  0  0  0  0  0
   12.8288    4.4303   22.3985 C   0  0  0  0  0  0
   13.5668    5.2866   21.9082 O   0  0  0  0  0  0
   13.1691    3.0231   22.3364 C   0  0  0  0  0  0
   12.2588    2.1067   22.7079 C   0  0  0  0  0  0
   11.0172    2.4134   23.1964 N   0  0  0  0  0  0
    9.9992    1.3711   23.4662 C   0  0  0  0  0  0
    9.2136    0.9968   22.1923 C   0  0  0  0  0  0
    9.4290    1.5464   21.1111 O   0  0  0  0  0  0
    8.2979    0.0214   22.3448 N   0  0  0  0  0  0
    7.5491   -0.6658   21.2640 C   0  0  1  0  0  0
    6.7799   -1.9380   21.7426 C   0  0  0  0  0  0
    5.9699   -2.4594   20.9728 O   0  0  0  0  0  0
    7.0516   -2.4182   22.9800 N   0  0  0  0  0  0
    6.3728   -3.4255   23.7054 C   0  0  0  0  0  0
    5.0373   -3.7773   23.4457 C   0  0  0  0  0  0
    4.3381   -4.6947   24.1520 N   0  0  0  0  0  0
    4.9642   -5.2902   25.1895 C   0  0  0  0  0  0
    6.2913   -5.0186   25.5866 C   0  0  0  0  0  0
    6.8906   -5.6506   26.7026 C   0  0  0  0  0  0
    8.2052   -5.3508   27.0470 C   0  0  0  0  0  0
    8.9440   -4.4491   26.2942 C   0  0  0  0  0  0
    8.3781   -3.8061   25.1953 C   0  0  0  0  0  0
    7.0281   -4.0653   24.8145 C   0  0  0  0  0  0
    6.6256    0.2802   20.5101 C   0  0  0  0  0  0
    6.4919    0.1714   19.1178 C   0  0  0  0  0  0
    5.6114    1.0009   18.4208 C   0  0  0  0  0  0
    4.8500    1.9462   19.1069 C   0  0  0  0  0  0
    4.9687    2.0605   20.4901 C   0  0  0  0  0  0
    3.9988    3.2007   21.3495 Cl  0  0  0  0  0  0
    5.8567    1.2402   21.1844 C   0  0  0  0  0  0
   10.7214    3.7246   23.5225 C   0  0  0  0  0  0
    9.8109    4.0128   24.3086 O   0  0  0  0  0  0
   10.7340    6.2517   24.1469 H   0  0  0  0  0  0
   12.1006    6.7468   23.1953 H   0  0  0  0  0  0
   10.5554    6.3974   22.3931 H   0  0  0  0  0  0
   14.1528    2.7327   21.9942 H   0  0  0  0  0  0
   12.4652    1.0454   22.7188 H   0  0  0  0  0  0
   10.4955    0.4826   23.8570 H   0  0  0  0  0  0
    9.2990    1.6713   24.2464 H   0  0  0  0  0  0
    8.1382   -0.3227   23.2783 H   0  0  0  0  0  0
    8.3054   -1.0449   20.5716 H   0  0  0  0  0  0
    7.8311   -2.0098   23.4662 H   0  0  0  0  0  0
    4.4660   -3.2977   22.6665 H   0  0  0  0  0  0
    4.3781   -6.0124   25.7414 H   0  0  0  0  0  0
    6.3297   -6.3703   27.2797 H   0  0  0  0  0  0
    8.6577   -5.8385   27.9008 H   0  0  0  0  0  0
    9.9691   -4.2507   26.5669 H   0  0  0  0  0  0
    8.9780   -3.1122   24.6275 H   0  0  0  0  0  0
    7.0659   -0.5643   18.5712 H   0  0  0  0  0  0
    5.5179    0.9125   17.3471 H   0  0  0  0  0  0
    4.1718    2.5910   18.5625 H   0  0  0  0  0  0
    5.9199    1.3322   22.2590 H   0  0  0  0  0  0
  1  2  1  0  0  0
  1 35  1  0  0  0
  1 36  1  0  0  0
  1 37  1  0  0  0
  2 33  1  0  0  0
  2  3  1  0  0  0
  3  4  2  0  0  0
  3  5  1  0  0  0
  5  6  2  0  0  0
  5 38  1  0  0  0
  6  7  1  0  0  0
  6 39  1  0  0  0
  7  8  1  0  0  0
  7 33  1  0  0  0
  8  9  1  0  0  0
  8 40  1  0  0  0
  8 41  1  0  0  0
  9 10  2  0  0  0
  9 11  1  0  0  0
 11 12  1  0  0  0
 11 42  1  0  0  0
 12 13  1  0  0  0
 12 26  1  0  0  0
 12 43  1  0  0  0
 13 14  2  0  0  0
 13 15  1  0  0  0
 15 16  1  0  0  0
 15 44  1  0  0  0
 16 25  2  0  0  0
 16 17  1  0  0  0
 17 18  2  0  0  0
 17 45  1  0  0  0
 18 19  1  0  0  0
 19 20  2  0  0  0
 19 46  1  0  0  0
 20 25  1  0  0  0
 20 21  1  0  0  0
 21 22  2  0  0  0
 21 47  1  0  0  0
 22 23  1  0  0  0
 22 48  1  0  0  0
 23 24  2  0  0  0
 23 49  1  0  0  0
 24 25  1  0  0  0
 24 50  1  0  0  0
 26 32  2  0  0  0
 26 27  1  0  0  0
 27 28  2  0  0  0
 27 51  1  0  0  0
 28 29  1  0  0  0
 28 52  1  0  0  0
 29 30  2  0  0  0
 29 53  1  0  0  0
 30 31  1  0  0  0
 30 32  1  0  0  0
 32 54  1  0  0  0
 33 34  2  0  0  0
M  END
> <r_i_docking_score>
-7.85027209953946

$$$$
ligprep_5.maegz:64
                    3D
 Schrodinger Suite 2020-4.
 56 60  0  0  1  0            999 V2000
   12.7768   -2.4508   21.8381 C   0  0  0  0  0  0
   12.6079   -1.0946   22.3242 N   0  0  0  0  0  0
   13.5699   -0.1826   22.1078 N   0  0  0  0  0  0
   13.1358    0.9234   22.6775 C   0  0  0  0  0  0
   11.9025    0.7324   23.3095 C   0  0  0  0  0  0
   10.9877    1.5698   24.0621 C   0  0  0  0  0  0
   11.1680    2.7603   24.3061 O   0  0  0  0  0  0
    9.8779    0.8351   24.4912 N   0  0  0  0  0  0
    8.8079    1.5589   25.2382 C   0  0  0  0  0  0
    8.0862    2.6608   24.4235 C   0  0  0  0  0  0
    8.1835    3.8250   24.7940 O   0  0  0  0  0  0
    7.3171    2.3427   23.3628 N   0  0  0  0  0  0
    7.0473    1.0129   22.7743 C   0  0  1  0  0  0
    6.2532    0.0504   23.7037 C   0  0  0  0  0  0
    5.6694    0.4919   24.6963 O   0  0  0  0  0  0
    6.2826   -1.2469   23.3258 N   0  0  0  0  0  0
    5.5852   -2.3635   23.8336 C   0  0  0  0  0  0
    4.5576   -2.2707   24.7896 C   0  0  0  0  0  0
    3.8309   -3.3221   25.2338 N   0  0  0  0  0  0
    4.1202   -4.5356   24.7226 C   0  0  0  0  0  0
    5.1265   -4.7822   23.7664 C   0  0  0  0  0  0
    5.3888   -6.0755   23.2584 C   0  0  0  0  0  0
    6.4067   -6.2675   22.3293 C   0  0  0  0  0  0
    7.1691   -5.1948   21.8874 C   0  0  0  0  0  0
    6.9234   -3.9063   22.3551 C   0  0  0  0  0  0
    5.8928   -3.6640   23.3103 C   0  0  0  0  0  0
    6.3896    1.1311   21.4081 C   0  0  0  0  0  0
    5.6225    2.2439   21.0198 C   0  0  0  0  0  0
    5.0210    2.2883   19.7618 C   0  0  0  0  0  0
    5.1666    1.2224   18.8775 C   0  0  0  0  0  0
    5.9057    0.1076   19.2542 C   0  0  0  0  0  0
    6.0175   -1.2528   18.2053 Cl  0  0  0  0  0  0
    6.5317    0.0751   20.4962 C   0  0  0  0  0  0
    9.7258   -0.5402   24.3173 C   0  0  0  0  0  0
   10.5235   -1.2566   23.6056 N   0  0  0  0  0  0
   11.5979   -0.5928   23.1062 C   0  0  0  0  0  0
   11.7945   -2.8531   21.5864 H   0  0  0  0  0  0
   13.3973   -2.4577   20.9412 H   0  0  0  0  0  0
   13.2361   -3.0625   22.6157 H   0  0  0  0  0  0
   13.6962    1.8479   22.6288 H   0  0  0  0  0  0
    9.2182    2.0130   26.1369 H   0  0  0  0  0  0
    8.0458    0.8750   25.6170 H   0  0  0  0  0  0
    6.7874    3.0995   22.9595 H   0  0  0  0  0  0
    8.0286    0.5749   22.6049 H   0  0  0  0  0  0
    6.8406   -1.4499   22.5115 H   0  0  0  0  0  0
    4.2507   -1.3249   25.2088 H   0  0  0  0  0  0
    3.5233   -5.3578   25.0910 H   0  0  0  0  0  0
    4.8003   -6.9168   23.5960 H   0  0  0  0  0  0
    6.6100   -7.2589   21.9533 H   0  0  0  0  0  0
    7.9633   -5.3663   21.1725 H   0  0  0  0  0  0
    7.5355   -3.0949   21.9898 H   0  0  0  0  0  0
    5.4719    3.0823   21.6822 H   0  0  0  0  0  0
    4.4377    3.1484   19.4674 H   0  0  0  0  0  0
    4.6917    1.2557   17.9077 H   0  0  0  0  0  0
    7.1125   -0.7955   20.7534 H   0  0  0  0  0  0
    8.8649   -1.0129   24.7864 H   0  0  0  0  0  0
  1  2  1  0  0  0
  1 37  1  0  0  0
  1 38  1  0  0  0
  1 39  1  0  0  0
  2 36  1  0  0  0
  2  3  1  0  0  0
  3  4  2  0  0  0
  4  5  1  0  0  0
  4 40  1  0  0  0
  5 36  2  0  0  0
  5  6  1  0  0  0
  6  7  2  0  0  0
  6  8  1  0  0  0
  8  9  1  0  0  0
  8 34  1  0  0  0
  9 10  1  0  0  0
  9 41  1  0  0  0
  9 42  1  0  0  0
 10 11  2  0  0  0
 10 12  1  0  0  0
 12 13  1  0  0  0
 12 43  1  0  0  0
 13 14  1  0  0  0
 13 27  1  0  0  0
 13 44  1  0  0  0
 14 15  2  0  0  0
 14 16  1  0  0  0
 16 17  1  0  0  0
 16 45  1  0  0  0
 17 26  2  0  0  0
 17 18  1  0  0  0
 18 19  2  0  0  0
 18 46  1  0  0  0
 19 20  1  0  0  0
 20 21  2  0  0  0
 20 47  1  0  0  0
 21 26  1  0  0  0
 21 22  1  0  0  0
 22 23  2  0  0  0
 22 48  1  0  0  0
 23 24  1  0  0  0
 23 49  1  0  0  0
 24 25  2  0  0  0
 24 50  1  0  0  0
 25 26  1  0  0  0
 25 51  1  0  0  0
 27 33  2  0  0  0
 27 28  1  0  0  0
 28 29  2  0  0  0
 28 52  1  0  0  0
 29 30  1  0  0  0
 29 53  1  0  0  0
 30 31  2  0  0  0
 30 54  1  0  0  0
 31 32  1  0  0  0
 31 33  1  0  0  0
 33 55  1  0  0  0
 34 35  2  0  0  0
 34 56  1  0  0  0
 35 36  1  0  0  0
M  END
> <r_i_docking_score>
-5.89769375661383

$$$$
ligprep_5.maegz:65
                    3D
 Schrodinger Suite 2020-4.
 58 61  0  0  1  0            999 V2000
   10.4123    0.7230   24.3154 C   0  0  0  0  0  0
    9.6172    1.7200   23.4578 C   0  0  1  0  0  0
   10.5315    2.7654   22.9974 N   0  0  0  0  0  0
   10.6429    4.0101   23.4849 C   0  0  0  0  0  0
   10.0004    4.4044   24.4571 O   0  0  0  0  0  0
   11.5751    4.9911   22.7393 C   0  0  0  0  0  0
   12.7721    5.4674   23.5761 C   0  0  0  0  0  0
   13.5941    5.4219   22.2757 C   0  0  0  0  0  0
   12.6071    4.3569   21.7730 C   0  0  0  0  0  0
    9.0100    1.0247   22.2299 C   0  0  0  0  0  0
    9.4089    1.3339   21.1081 O   0  0  0  0  0  0
    8.0641    0.0919   22.4499 N   0  0  0  0  0  0
    7.4472   -0.7293   21.3821 C   0  0  1  0  0  0
    6.6419   -1.9517   21.9098 C   0  0  0  0  0  0
    5.6403   -2.3257   21.2949 O   0  0  0  0  0  0
    7.0615   -2.5103   23.0665 N   0  0  0  0  0  0
    6.3671   -3.4164   23.9026 C   0  0  0  0  0  0
    4.9731   -3.6010   23.8350 C   0  0  0  0  0  0
    4.2666   -4.4155   24.6498 N   0  0  0  0  0  0
    4.9476   -5.0738   25.6095 C   0  0  0  0  0  0
    6.3380   -4.9647   25.8180 C   0  0  0  0  0  0
    6.9957   -5.6457   26.8645 C   0  0  0  0  0  0
    8.3696   -5.5160   27.0213 C   0  0  0  0  0  0
    9.1151   -4.7270   26.1531 C   0  0  0  0  0  0
    8.4912   -4.0317   25.1199 C   0  0  0  0  0  0
    7.0808   -4.1233   24.9282 C   0  0  0  0  0  0
    6.6223    0.1290   20.4376 C   0  0  0  0  0  0
    6.7185   -0.0418   19.0518 C   0  0  0  0  0  0
    5.9526    0.7469   18.1914 C   0  0  0  0  0  0
    5.0823    1.7051   18.7079 C   0  0  0  0  0  0
    4.9666    1.8757   20.0838 C   0  0  0  0  0  0
    3.8524    3.0253   20.7270 Cl  0  0  0  0  0  0
    5.7412    1.0992   20.9414 C   0  0  0  0  0  0
    9.7630   -0.0170   24.7850 H   0  0  0  0  0  0
   11.1564    0.1872   23.7233 H   0  0  0  0  0  0
   10.9397    1.2458   25.1080 H   0  0  0  0  0  0
    8.8064    2.1536   24.0474 H   0  0  0  0  0  0
   11.0011    2.5499   22.1298 H   0  0  0  0  0  0
   11.0057    5.8147   22.3043 H   0  0  0  0  0  0
   13.1358    4.7487   24.3081 H   0  0  0  0  0  0
   12.6674    6.4474   24.0457 H   0  0  0  0  0  0
   14.6287    5.0941   22.3806 H   0  0  0  0  0  0
   13.5711    6.3467   21.6991 H   0  0  0  0  0  0
   12.3696    4.3967   20.7088 H   0  0  0  0  0  0
   12.9437    3.3501   22.0321 H   0  0  0  0  0  0
    7.7652   -0.0909   23.3966 H   0  0  0  0  0  0
    8.2790   -1.1685   20.8256 H   0  0  0  0  0  0
    7.9549   -2.2043   23.4162 H   0  0  0  0  0  0
    4.3598   -3.0635   23.1303 H   0  0  0  0  0  0
    4.3575   -5.7079   26.2561 H   0  0  0  0  0  0
    6.4316   -6.2838   27.5309 H   0  0  0  0  0  0
    8.8626   -6.0526   27.8182 H   0  0  0  0  0  0
   10.1861   -4.6595   26.2819 H   0  0  0  0  0  0
    9.0905   -3.4257   24.4573 H   0  0  0  0  0  0
    7.3844   -0.7847   18.6335 H   0  0  0  0  0  0
    6.0264    0.6156   17.1223 H   0  0  0  0  0  0
    4.4947    2.3194   18.0413 H   0  0  0  0  0  0
    5.6331    1.2355   22.0073 H   0  0  0  0  0  0
  1  2  1  0  0  0
  1 34  1  0  0  0
  1 35  1  0  0  0
  1 36  1  0  0  0
  2  3  1  0  0  0
  2 10  1  0  0  0
  2 37  1  0  0  0
  3  4  1  0  0  0
  3 38  1  0  0  0
  4  5  2  0  0  0
  4  6  1  0  0  0
  6  9  1  0  0  0
  6  7  1  0  0  0
  6 39  1  0  0  0
  7  8  1  0  0  0
  7 40  1  0  0  0
  7 41  1  0  0  0
  8  9  1  0  0  0
  8 42  1  0  0  0
  8 43  1  0  0  0
  9 44  1  0  0  0
  9 45  1  0  0  0
 10 11  2  0  0  0
 10 12  1  0  0  0
 12 13  1  0  0  0
 12 46  1  0  0  0
 13 14  1  0  0  0
 13 27  1  0  0  0
 13 47  1  0  0  0
 14 15  2  0  0  0
 14 16  1  0  0  0
 16 17  1  0  0  0
 16 48  1  0  0  0
 17 26  2  0  0  0
 17 18  1  0  0  0
 18 19  2  0  0  0
 18 49  1  0  0  0
 19 20  1  0  0  0
 20 21  2  0  0  0
 20 50  1  0  0  0
 21 26  1  0  0  0
 21 22  1  0  0  0
 22 23  2  0  0  0
 22 51  1  0  0  0
 23 24  1  0  0  0
 23 52  1  0  0  0
 24 25  2  0  0  0
 24 53  1  0  0  0
 25 26  1  0  0  0
 25 54  1  0  0  0
 27 33  2  0  0  0
 27 28  1  0  0  0
 28 29  2  0  0  0
 28 55  1  0  0  0
 29 30  1  0  0  0
 29 56  1  0  0  0
 30 31  2  0  0  0
 30 57  1  0  0  0
 31 32  1  0  0  0
 31 33  1  0  0  0
 33 58  1  0  0  0
M  END
> <r_i_docking_score>
-6.71071591161893

$$$$
ligprep_5.maegz:66
                    3D
 Schrodinger Suite 2020-4.
 56 59  0  0  1  0            999 V2000
    5.5696   -2.9497   20.1063 N   0  0  0  0  0  0
    6.0606   -2.7986   21.1393 C   0  0  0  0  0  0
    6.6858   -2.6095   22.4315 C   0  0  0  0  0  0
    7.8850   -3.2582   22.7331 C   0  0  0  0  0  0
    8.4778   -3.0600   23.9768 C   0  0  0  0  0  0
    7.8669   -2.2140   24.9071 C   0  0  0  0  0  0
    8.4932   -1.9971   26.2497 C   0  0  0  0  0  0
    8.3698   -2.8619   27.1079 O   0  0  0  0  0  0
    9.1695   -0.8529   26.4791 N   0  0  0  0  0  0
    9.5848    0.1463   25.4862 C   0  0  0  0  0  0
    8.4061    1.0411   25.0767 C   0  0  0  0  0  0
    7.5806    1.4191   25.9068 O   0  0  0  0  0  0
    8.3422    1.3624   23.7755 N   0  0  0  0  0  0
    7.2610    2.1003   23.0958 C   0  0  1  0  0  0
    7.6154    3.6139   23.0049 C   0  0  0  0  0  0
    8.7672    3.9249   22.7087 O   0  0  0  0  0  0
    6.6861    4.5774   23.1833 N   0  0  0  0  0  0
    5.3212    4.4094   23.4577 C   0  0  0  0  0  0
    4.4065    4.7510   22.4580 C   0  0  0  0  0  0
    3.0659    4.6121   22.5791 N   0  0  0  0  0  0
    2.5931    4.1423   23.7539 C   0  0  0  0  0  0
    3.3972    3.8189   24.8696 C   0  0  0  0  0  0
    2.8542    3.3649   26.0966 C   0  0  0  0  0  0
    3.6960    3.0920   27.1710 C   0  0  0  0  0  0
    5.0702    3.2714   27.0549 C   0  0  0  0  0  0
    5.6295    3.7149   25.8591 C   0  0  0  0  0  0
    4.8121    3.9777   24.7279 C   0  0  0  0  0  0
    6.9940    1.4830   21.7257 C   0  0  0  0  0  0
    7.8875    0.6071   21.0764 C   0  0  0  0  0  0
    7.5694    0.0434   19.8389 C   0  0  0  0  0  0
    6.3647    0.3521   19.2171 C   0  0  0  0  0  0
    5.4706    1.2110   19.8476 C   0  0  0  0  0  0
    3.9671    1.5823   19.1076 Cl  0  0  0  0  0  0
    5.7806    1.7646   21.0869 C   0  0  0  0  0  0
    6.6560   -1.5871   24.6061 C   0  0  0  0  0  0
    6.0779   -1.7703   23.3599 C   0  0  0  0  0  0
    8.3652   -3.9091   22.0149 H   0  0  0  0  0  0
    9.4075   -3.5615   24.2082 H   0  0  0  0  0  0
    9.5002   -0.6843   27.4187 H   0  0  0  0  0  0
   10.3699    0.7719   25.9079 H   0  0  0  0  0  0
   10.0188   -0.3590   24.6212 H   0  0  0  0  0  0
    9.1102    1.0976   23.1786 H   0  0  0  0  0  0
    6.3536    1.9580   23.6853 H   0  0  0  0  0  0
    6.9845    5.5138   22.9537 H   0  0  0  0  0  0
    4.7522    5.1303   21.5080 H   0  0  0  0  0  0
    1.5202    4.0388   23.8209 H   0  0  0  0  0  0
    1.7857    3.2407   26.1967 H   0  0  0  0  0  0
    3.2801    2.7460   28.1064 H   0  0  0  0  0  0
    5.7127    3.0593   27.8971 H   0  0  0  0  0  0
    6.6985    3.8484   25.7878 H   0  0  0  0  0  0
    8.8349    0.3387   21.5173 H   0  0  0  0  0  0
    8.2557   -0.6404   19.3594 H   0  0  0  0  0  0
    6.1212   -0.0828   18.2577 H   0  0  0  0  0  0
    5.0518    2.4027   21.5582 H   0  0  0  0  0  0
    6.1723   -0.9351   25.3214 H   0  0  0  0  0  0
    5.1695   -1.2443   23.1195 H   0  0  0  0  0  0
  1  2  3  0  0  0
  2  3  1  0  0  0
  3 36  2  0  0  0
  3  4  1  0  0  0
  4  5  2  0  0  0
  4 37  1  0  0  0
  5  6  1  0  0  0
  5 38  1  0  0  0
  6  7  1  0  0  0
  6 35  2  0  0  0
  7  8  2  0  0  0
  7  9  1  0  0  0
  9 10  1  0  0  0
  9 39  1  0  0  0
 10 11  1  0  0  0
 10 40  1  0  0  0
 10 41  1  0  0  0
 11 12  2  0  0  0
 11 13  1  0  0  0
 13 14  1  0  0  0
 13 42  1  0  0  0
 14 15  1  0  0  0
 14 28  1  0  0  0
 14 43  1  0  0  0
 15 16  2  0  0  0
 15 17  1  0  0  0
 17 18  1  0  0  0
 17 44  1  0  0  0
 18 27  2  0  0  0
 18 19  1  0  0  0
 19 20  2  0  0  0
 19 45  1  0  0  0
 20 21  1  0  0  0
 21 22  2  0  0  0
 21 46  1  0  0  0
 22 27  1  0  0  0
 22 23  1  0  0  0
 23 24  2  0  0  0
 23 47  1  0  0  0
 24 25  1  0  0  0
 24 48  1  0  0  0
 25 26  2  0  0  0
 25 49  1  0  0  0
 26 27  1  0  0  0
 26 50  1  0  0  0
 28 34  2  0  0  0
 28 29  1  0  0  0
 29 30  2  0  0  0
 29 51  1  0  0  0
 30 31  1  0  0  0
 30 52  1  0  0  0
 31 32  2  0  0  0
 31 53  1  0  0  0
 32 33  1  0  0  0
 32 34  1  0  0  0
 34 54  1  0  0  0
 35 36  1  0  0  0
 35 55  1  0  0  0
 36 56  1  0  0  0
M  END
> <r_i_docking_score>
-0.804591205523578

$$$$
ligprep_5.maegz:67
                    3D
 Schrodinger Suite 2020-4.
 56 60  0  0  1  0            999 V2000
    5.1619    1.7838   18.2634 C   0  0  0  0  0  0
    4.4500    2.3496   19.3930 N   0  0  0  0  0  0
    4.9359    2.6273   20.6401 C   0  0  0  0  0  0
    3.8669    3.1414   21.3565 C   0  0  0  0  0  0
    3.8952    3.5021   22.7552 C   0  0  0  0  0  0
    3.1556    2.9653   23.6288 N   0  0  0  0  0  0
    3.7351    3.1918   24.9099 O   0  0  0  0  0  0
    5.0149    3.8166   24.7505 C   0  0  1  0  0  0
    6.1767    2.7811   24.7626 C   0  0  0  0  0  0
    7.2296    3.0514   25.3400 O   0  0  0  0  0  0
    5.9905    1.6610   24.0303 N   0  0  0  0  0  0
    6.9519    0.7019   23.4510 C   0  0  1  0  0  0
    8.2093    1.2800   22.7459 C   0  0  0  0  0  0
    8.3995    1.0318   21.5514 O   0  0  0  0  0  0
    9.0692    1.9591   23.5305 N   0  0  0  0  0  0
   10.3938    2.2765   23.2123 C   0  0  0  0  0  0
   10.7748    3.6203   23.2515 C   0  0  0  0  0  0
   12.0280    4.0576   22.9868 N   0  0  0  0  0  0
   12.9568    3.1267   22.6755 C   0  0  0  0  0  0
   12.7168    1.7343   22.6351 C   0  0  0  0  0  0
   13.7231    0.7959   22.3082 C   0  0  0  0  0  0
   13.4377   -0.5661   22.3068 C   0  0  0  0  0  0
   12.1603   -1.0216   22.6056 C   0  0  0  0  0  0
   11.1476   -0.1218   22.9203 C   0  0  0  0  0  0
   11.3916    1.2834   22.9241 C   0  0  0  0  0  0
    7.2963   -0.4262   24.3977 C   0  0  0  0  0  0
    7.0606   -1.7572   24.0233 C   0  0  0  0  0  0
    7.4549   -2.8097   24.8524 C   0  0  0  0  0  0
    8.1012   -2.5424   26.0594 C   0  0  0  0  0  0
    8.3418   -1.2211   26.4348 C   0  0  0  0  0  0
    9.1693   -0.8529   27.8937 Cl  0  0  0  0  0  0
    7.9325   -0.1741   25.6189 C   0  0  0  0  0  0
    4.8838    4.4469   23.3626 C   0  0  0  0  0  0
    2.8114    3.1611   20.4383 C   0  0  0  0  0  0
    3.1693    2.7136   19.2561 N   0  0  0  0  0  0
    5.1698    2.5134   17.4513 H   0  0  0  0  0  0
    6.1837    1.5317   18.5479 H   0  0  0  0  0  0
    4.6537    0.8792   17.9264 H   0  0  0  0  0  0
    5.9629    2.4177   20.8988 H   0  0  0  0  0  0
    5.2450    4.5458   25.5284 H   0  0  0  0  0  0
    5.0569    1.5594   23.6493 H   0  0  0  0  0  0
    6.3722    0.2771   22.6281 H   0  0  0  0  0  0
    8.7021    2.3133   24.4064 H   0  0  0  0  0  0
   10.0511    4.3905   23.4784 H   0  0  0  0  0  0
   13.9485    3.5010   22.4636 H   0  0  0  0  0  0
   14.7152    1.1475   22.0633 H   0  0  0  0  0  0
   14.2097   -1.2802   22.0622 H   0  0  0  0  0  0
   11.9530   -2.0827   22.5944 H   0  0  0  0  0  0
   10.1681   -0.5066   23.1575 H   0  0  0  0  0  0
    6.5851   -1.9820   23.0795 H   0  0  0  0  0  0
    7.2742   -3.8320   24.5520 H   0  0  0  0  0  0
    8.4217   -3.3561   26.6943 H   0  0  0  0  0  0
    8.1501    0.8346   25.9355 H   0  0  0  0  0  0
    4.4418    5.4420   23.4244 H   0  0  0  0  0  0
    5.8118    4.5324   22.7929 H   0  0  0  0  0  0
    1.8056    3.5046   20.6312 H   0  0  0  0  0  0
  1  2  1  0  0  0
  1 36  1  0  0  0
  1 37  1  0  0  0
  1 38  1  0  0  0
  2 35  1  0  0  0
  2  3  1  0  0  0
  3  4  2  0  0  0
  3 39  1  0  0  0
  4  5  1  0  0  0
  4 34  1  0  0  0
  5 33  1  0  0  0
  5  6  2  0  0  0
  6  7  1  0  0  0
  7  8  1  0  0  0
  8  9  1  0  0  0
  8 33  1  0  0  0
  8 40  1  0  0  0
  9 10  2  0  0  0
  9 11  1  0  0  0
 11 12  1  0  0  0
 11 41  1  0  0  0
 12 13  1  0  0  0
 12 26  1  0  0  0
 12 42  1  0  0  0
 13 14  2  0  0  0
 13 15  1  0  0  0
 15 16  1  0  0  0
 15 43  1  0  0  0
 16 25  2  0  0  0
 16 17  1  0  0  0
 17 18  2  0  0  0
 17 44  1  0  0  0
 18 19  1  0  0  0
 19 20  2  0  0  0
 19 45  1  0  0  0
 20 25  1  0  0  0
 20 21  1  0  0  0
 21 22  2  0  0  0
 21 46  1  0  0  0
 22 23  1  0  0  0
 22 47  1  0  0  0
 23 24  2  0  0  0
 23 48  1  0  0  0
 24 25  1  0  0  0
 24 49  1  0  0  0
 26 32  2  0  0  0
 26 27  1  0  0  0
 27 28  2  0  0  0
 27 50  1  0  0  0
 28 29  1  0  0  0
 28 51  1  0  0  0
 29 30  2  0  0  0
 29 52  1  0  0  0
 30 31  1  0  0  0
 30 32  1  0  0  0
 32 53  1  0  0  0
 33 54  1  0  0  0
 33 55  1  0  0  0
 34 35  2  0  0  0
 34 56  1  0  0  0
M  END
> <r_i_docking_score>
-4.51064049803117

$$$$
ligprep_5.maegz:68
                    3D
 Schrodinger Suite 2020-4.
 52 55  0  0  1  0            999 V2000
    5.9702    0.7460   18.3072 N   0  0  0  0  0  0
    6.1712    0.8514   19.4401 C   0  0  0  0  0  0
    6.3794    0.9839   20.8436 C   0  0  0  0  0  0
    5.6953    1.9068   21.5558 C   0  0  0  0  0  0
    5.7993    2.0780   22.9163 N   0  0  0  0  0  0
    4.9715    3.0519   23.6605 C   0  0  0  0  0  0
    5.7428    4.2915   24.1614 C   0  0  0  0  0  0
    5.1991    5.0071   24.9999 O   0  0  0  0  0  0
    6.9620    4.5753   23.6592 N   0  0  0  0  0  0
    7.7220    5.8086   23.9626 C   0  0  1  0  0  0
    9.2496    5.7052   23.6949 C   0  0  0  0  0  0
    9.9071    6.7463   23.6610 O   0  0  0  0  0  0
    9.7656    4.4650   23.5422 N   0  0  0  0  0  0
   11.0706    4.0653   23.1754 C   0  0  0  0  0  0
   12.0635    4.9591   22.7336 C   0  0  0  0  0  0
   13.2912    4.5860   22.3099 N   0  0  0  0  0  0
   13.5695    3.2664   22.3079 C   0  0  0  0  0  0
   12.6809    2.2561   22.7274 C   0  0  0  0  0  0
   13.0240    0.8834   22.7041 C   0  0  0  0  0  0
   12.0986   -0.0721   23.1076 C   0  0  0  0  0  0
   10.8496    0.3085   23.5802 C   0  0  0  0  0  0
   10.4902    1.6529   23.6288 C   0  0  0  0  0  0
   11.3904    2.6658   23.1867 C   0  0  0  0  0  0
    7.1011    6.9885   23.2360 C   0  0  0  0  0  0
    6.6632    6.8810   21.9070 C   0  0  0  0  0  0
    6.0648    7.9625   21.2655 C   0  0  0  0  0  0
    5.9128    9.1718   21.9391 C   0  0  0  0  0  0
    6.3615    9.3004   23.2535 C   0  0  0  0  0  0
    6.1926   10.8051   24.0803 Cl  0  0  0  0  0  0
    6.9513    8.2131   23.8988 C   0  0  0  0  0  0
    6.6599    1.2682   23.6389 C   0  0  0  0  0  0
    6.8666    1.3380   24.8497 O   0  0  0  0  0  0
    7.3356    0.3438   22.8929 N   0  0  0  0  0  0
    7.3026    0.1122   21.5533 C   0  0  0  0  0  0
    8.0066   -0.7525   21.0420 O   0  0  0  0  0  0
    4.9857    2.5893   21.1038 H   0  0  0  0  0  0
    4.1213    3.3792   23.0617 H   0  0  0  0  0  0
    4.5464    2.5462   24.5287 H   0  0  0  0  0  0
    7.3355    3.9930   22.9248 H   0  0  0  0  0  0
    7.6605    5.9619   25.0431 H   0  0  0  0  0  0
    9.1206    3.7046   23.6841 H   0  0  0  0  0  0
   11.8960    6.0211   22.6723 H   0  0  0  0  0  0
   14.5543    2.9941   21.9557 H   0  0  0  0  0  0
   13.9984    0.5823   22.3474 H   0  0  0  0  0  0
   12.3571   -1.1207   23.0694 H   0  0  0  0  0  0
   10.1544   -0.4489   23.9114 H   0  0  0  0  0  0
    9.5182    1.9217   24.0110 H   0  0  0  0  0  0
    6.7725    5.9562   21.3581 H   0  0  0  0  0  0
    5.7259    7.8557   20.2447 H   0  0  0  0  0  0
    5.4617   10.0145   21.4366 H   0  0  0  0  0  0
    7.2906    8.3222   24.9182 H   0  0  0  0  0  0
    7.9625   -0.2509   23.4120 H   0  0  0  0  0  0
  1  2  3  0  0  0
  2  3  1  0  0  0
  3 34  1  0  0  0
  3  4  2  0  0  0
  4  5  1  0  0  0
  4 36  1  0  0  0
  5  6  1  0  0  0
  5 31  1  0  0  0
  6  7  1  0  0  0
  6 37  1  0  0  0
  6 38  1  0  0  0
  7  8  2  0  0  0
  7  9  1  0  0  0
  9 10  1  0  0  0
  9 39  1  0  0  0
 10 11  1  0  0  0
 10 24  1  0  0  0
 10 40  1  0  0  0
 11 12  2  0  0  0
 11 13  1  0  0  0
 13 14  1  0  0  0
 13 41  1  0  0  0
 14 23  2  0  0  0
 14 15  1  0  0  0
 15 16  2  0  0  0
 15 42  1  0  0  0
 16 17  1  0  0  0
 17 18  2  0  0  0
 17 43  1  0  0  0
 18 23  1  0  0  0
 18 19  1  0  0  0
 19 20  2  0  0  0
 19 44  1  0  0  0
 20 21  1  0  0  0
 20 45  1  0  0  0
 21 22  2  0  0  0
 21 46  1  0  0  0
 22 23  1  0  0  0
 22 47  1  0  0  0
 24 30  2  0  0  0
 24 25  1  0  0  0
 25 26  2  0  0  0
 25 48  1  0  0  0
 26 27  1  0  0  0
 26 49  1  0  0  0
 27 28  2  0  0  0
 27 50  1  0  0  0
 28 29  1  0  0  0
 28 30  1  0  0  0
 30 51  1  0  0  0
 31 32  2  0  0  0
 31 33  1  0  0  0
 33 34  1  0  0  0
 33 52  1  0  0  0
 34 35  2  0  0  0
M  END
> <r_i_docking_score>
-4.77679000301676

$$$$
ligprep_5.maegz:69
                    3D
 Schrodinger Suite 2020-4.
 56 60  0  0  1  0            999 V2000
    7.7659    2.0349   25.5126 O   0  0  0  0  0  0
    7.6177    0.8295   25.3274 C   0  0  0  0  0  0
    7.7018   -0.1343   26.5275 C   0  0  0  0  0  0
    7.0306   -1.4217   26.3455 N   0  0  3  0  0  0
    5.7552   -1.5912   26.6887 N   0  0  0  0  0  0
    5.4054   -2.7749   26.0766 N   0  0  0  0  0  0
    6.4661   -3.1552   25.3733 C   0  0  0  0  0  0
    6.4493   -4.3305   24.4372 C   0  0  0  0  0  0
    5.2952   -5.1165   24.3126 C   0  0  0  0  0  0
    5.2516   -6.1721   23.4087 C   0  0  0  0  0  0
    6.3646   -6.4509   22.6235 C   0  0  0  0  0  0
    7.5203   -5.6835   22.7329 C   0  0  0  0  0  0
    7.5680   -4.6332   23.6446 C   0  0  0  0  0  0
    7.5098   -2.3619   25.5184 N   0  0  0  0  0  0
    7.4465    0.3007   24.0984 N   0  0  0  0  0  0
    7.5312    1.0094   22.7990 C   0  0  1  0  0  0
    8.9881    1.3827   22.3824 C   0  0  0  0  0  0
    9.1704    1.9468   21.2997 O   0  0  0  0  0  0
    9.9949    1.0817   23.2299 N   0  0  0  0  0  0
   11.3310    1.3924   22.9734 C   0  0  0  0  0  0
   12.2202    0.3435   22.7179 C   0  0  0  0  0  0
   13.5190    0.5300   22.3924 N   0  0  0  0  0  0
   13.9541    1.8055   22.3079 C   0  0  0  0  0  0
   13.1690    2.9547   22.5532 C   0  0  0  0  0  0
   13.6761    4.2718   22.4528 C   0  0  0  0  0  0
   12.8606    5.3585   22.7453 C   0  0  0  0  0  0
   11.5372    5.1688   23.1265 C   0  0  0  0  0  0
   11.0095    3.8846   23.2208 C   0  0  0  0  0  0
   11.8093    2.7439   22.9231 C   0  0  0  0  0  0
    6.8333    0.2430   21.6840 C   0  0  0  0  0  0
    6.5839    0.8955   20.4651 C   0  0  0  0  0  0
    6.1267    0.1959   19.3537 C   0  0  0  0  0  0
    5.8634   -1.1646   19.4621 C   0  0  0  0  0  0
    5.9851   -1.8092   20.6895 C   0  0  0  0  0  0
    5.5730   -3.4782   20.8235 Cl  0  0  0  0  0  0
    6.4769   -1.1148   21.7942 C   0  0  0  0  0  0
    8.7566   -0.3342   26.7251 H   0  0  0  0  0  0
    7.2910    0.3512   27.4136 H   0  0  0  0  0  0
    4.4176   -4.9041   24.9084 H   0  0  0  0  0  0
    4.3570   -6.7710   23.3072 H   0  0  0  0  0  0
    6.3325   -7.2534   21.9088 H   0  0  0  0  0  0
    8.3696   -5.9066   22.1054 H   0  0  0  0  0  0
    8.4699   -4.0409   23.7128 H   0  0  0  0  0  0
    7.3923   -0.7046   24.0335 H   0  0  0  0  0  0
    6.9984    1.9533   22.9441 H   0  0  0  0  0  0
    9.7879    0.5266   24.0454 H   0  0  0  0  0  0
   11.8837   -0.6840   22.7408 H   0  0  0  0  0  0
   14.9837    1.9309   22.0078 H   0  0  0  0  0  0
   14.7091    4.4278   22.1763 H   0  0  0  0  0  0
   13.2671    6.3542   22.6871 H   0  0  0  0  0  0
   10.9124    6.0218   23.3465 H   0  0  0  0  0  0
    9.9781    3.7570   23.5139 H   0  0  0  0  0  0
    6.8035    1.9474   20.3514 H   0  0  0  0  0  0
    5.9894    0.7025   18.4080 H   0  0  0  0  0  0
    5.5477   -1.7157   18.5894 H   0  0  0  0  0  0
    6.6142   -1.6657   22.7111 H   0  0  0  0  0  0
  1  2  2  0  0  0
  2  3  1  0  0  0
  2 15  1  0  0  0
  3  4  1  0  0  0
  3 37  1  0  0  0
  3 38  1  0  0  0
  4 14  1  0  0  0
  4  5  1  0  0  0
  5  6  2  0  0  0
  6  7  1  0  0  0
  7  8  1  0  0  0
  7 14  2  0  0  0
  8 13  2  0  0  0
  8  9  1  0  0  0
  9 10  2  0  0  0
  9 39  1  0  0  0
 10 11  1  0  0  0
 10 40  1  0  0  0
 11 12  2  0  0  0
 11 41  1  0  0  0
 12 13  1  0  0  0
 12 42  1  0  0  0
 13 43  1  0  0  0
 15 16  1  0  0  0
 15 44  1  0  0  0
 16 17  1  0  0  0
 16 30  1  0  0  0
 16 45  1  0  0  0
 17 18  2  0  0  0
 17 19  1  0  0  0
 19 20  1  0  0  0
 19 46  1  0  0  0
 20 29  2  0  0  0
 20 21  1  0  0  0
 21 22  2  0  0  0
 21 47  1  0  0  0
 22 23  1  0  0  0
 23 24  2  0  0  0
 23 48  1  0  0  0
 24 29  1  0  0  0
 24 25  1  0  0  0
 25 26  2  0  0  0
 25 49  1  0  0  0
 26 27  1  0  0  0
 26 50  1  0  0  0
 27 28  2  0  0  0
 27 51  1  0  0  0
 28 29  1  0  0  0
 28 52  1  0  0  0
 30 36  2  0  0  0
 30 31  1  0  0  0
 31 32  2  0  0  0
 31 53  1  0  0  0
 32 33  1  0  0  0
 32 54  1  0  0  0
 33 34  2  0  0  0
 33 55  1  0  0  0
 34 35  1  0  0  0
 34 36  1  0  0  0
 36 56  1  0  0  0
M  END
> <r_i_docking_score>
-7.42057600183336

$$$$
ligprep_5.maegz:70
                    3D
 Schrodinger Suite 2020-4.
 50 53  0  0  1  0            999 V2000
    6.3258   -1.5629   23.4157 O   0  0  0  0  0  0
    7.4992   -1.7323   23.0855 C   0  0  0  0  0  0
    8.1526   -3.1224   23.1905 C   0  0  0  0  0  0
    7.2357   -4.2424   22.9710 N   0  0  0  0  0  0
    7.1692   -5.1259   21.9272 C   0  0  0  0  0  0
    6.1575   -5.9387   22.0917 N   0  0  0  0  0  0
    5.6221   -5.5104   23.2304 C   0  0  0  0  0  0
    4.3773   -6.1511   23.8255 C   0  0  0  0  0  0
    3.8694   -5.4318   24.8264 F   0  0  0  0  0  0
    4.6471   -7.3611   24.3091 F   0  0  0  0  0  0
    3.4159   -6.2808   22.9116 F   0  0  0  0  0  0
    6.2454   -4.5116   23.8283 N   0  0  0  0  0  0
    8.2705   -0.7177   22.6480 N   0  0  0  0  0  0
    7.7988    0.6673   22.4484 C   0  0  1  0  0  0
    9.0365    1.5567   22.2203 C   0  0  0  0  0  0
    9.5700    1.5475   21.1096 O   0  0  0  0  0  0
    9.4350    2.3107   23.2675 N   0  0  0  0  0  0
   10.5274    3.2029   23.2998 C   0  0  0  0  0  0
   11.7419    2.9118   22.6593 C   0  0  0  0  0  0
   12.8156    3.7345   22.6498 N   0  0  0  0  0  0
   12.7092    4.8963   23.3277 C   0  0  0  0  0  0
   11.5701    5.2979   24.0575 C   0  0  0  0  0  0
   11.5294    6.5038   24.7951 C   0  0  0  0  0  0
   10.3764    6.8552   25.4896 C   0  0  0  0  0  0
    9.2563    6.0302   25.4628 C   0  0  0  0  0  0
    9.2715    4.8343   24.7512 C   0  0  0  0  0  0
   10.4336    4.4286   24.0350 C   0  0  0  0  0  0
    6.8434    0.8036   21.2684 C   0  0  0  0  0  0
    6.0100    1.9293   21.1734 C   0  0  0  0  0  0
    5.1682    2.1014   20.0726 C   0  0  0  0  0  0
    5.1523    1.1521   19.0522 C   0  0  0  0  0  0
    5.9710    0.0273   19.1398 C   0  0  0  0  0  0
    5.9697   -1.1695   17.9090 Cl  0  0  0  0  0  0
    6.8098   -0.1412   20.2308 C   0  0  0  0  0  0
    8.5834   -3.2252   24.1882 H   0  0  0  0  0  0
    8.9737   -3.2176   22.4768 H   0  0  0  0  0  0
    7.8798   -5.0951   21.1136 H   0  0  0  0  0  0
    9.2362   -0.8941   22.4084 H   0  0  0  0  0  0
    7.2866    0.9717   23.3654 H   0  0  0  0  0  0
    8.8695    2.2752   24.1031 H   0  0  0  0  0  0
   11.8748    1.9869   22.1203 H   0  0  0  0  0  0
   13.5734    5.5376   23.3047 H   0  0  0  0  0  0
   12.3968    7.1500   24.8117 H   0  0  0  0  0  0
   10.3471    7.7791   26.0488 H   0  0  0  0  0  0
    8.3645    6.3222   26.0010 H   0  0  0  0  0  0
    8.3891    4.2113   24.7452 H   0  0  0  0  0  0
    6.0202    2.6823   21.9471 H   0  0  0  0  0  0
    4.5431    2.9809   20.0018 H   0  0  0  0  0  0
    4.5081    1.2901   18.1977 H   0  0  0  0  0  0
    7.4500   -1.0101   20.2524 H   0  0  0  0  0  0
  1  2  2  0  0  0
  2  3  1  0  0  0
  2 13  1  0  0  0
  3  4  1  0  0  0
  3 35  1  0  0  0
  3 36  1  0  0  0
  4 12  1  0  0  0
  4  5  1  0  0  0
  5  6  2  0  0  0
  5 37  1  0  0  0
  6  7  1  0  0  0
  7  8  1  0  0  0
  7 12  2  0  0  0
  8  9  1  0  0  0
  8 10  1  0  0  0
  8 11  1  0  0  0
 13 14  1  0  0  0
 13 38  1  0  0  0
 14 15  1  0  0  0
 14 28  1  0  0  0
 14 39  1  0  0  0
 15 16  2  0  0  0
 15 17  1  0  0  0
 17 18  1  0  0  0
 17 40  1  0  0  0
 18 27  2  0  0  0
 18 19  1  0  0  0
 19 20  2  0  0  0
 19 41  1  0  0  0
 20 21  1  0  0  0
 21 22  2  0  0  0
 21 42  1  0  0  0
 22 27  1  0  0  0
 22 23  1  0  0  0
 23 24  2  0  0  0
 23 43  1  0  0  0
 24 25  1  0  0  0
 24 44  1  0  0  0
 25 26  2  0  0  0
 25 45  1  0  0  0
 26 27  1  0  0  0
 26 46  1  0  0  0
 28 34  2  0  0  0
 28 29  1  0  0  0
 29 30  2  0  0  0
 29 47  1  0  0  0
 30 31  1  0  0  0
 30 48  1  0  0  0
 31 32  2  0  0  0
 31 49  1  0  0  0
 32 33  1  0  0  0
 32 34  1  0  0  0
 34 50  1  0  0  0
M  END
> <r_i_docking_score>
-6.97095161263343

$$$$
ligprep_5.maegz:71
                    3D
 Schrodinger Suite 2020-4.
 56 59  0  0  1  0            999 V2000
    5.9238    5.3194   21.9079 N   0  0  0  0  0  0
    6.7362    4.3760   22.3797 C   0  0  0  0  0  0
    7.4654    4.5815   23.3477 O   0  0  0  0  0  0
    6.7406    3.0539   21.6579 C   0  0  0  0  0  0
    7.9467    2.3647   21.5082 C   0  0  0  0  0  0
    7.9857    1.1474   20.8424 C   0  0  0  0  0  0
    6.8220    0.6007   20.3168 C   0  0  0  0  0  0
    6.9573   -0.6084   19.6718 O   0  0  0  0  0  0
    5.9483   -1.6082   19.8529 C   0  0  0  0  0  0
    6.2140   -2.4676   21.1079 C   0  0  0  0  0  0
    5.5696   -3.5023   21.2766 O   0  0  0  0  0  0
    7.1818   -2.0681   21.9511 N   0  0  0  0  0  0
    7.7165   -2.8030   23.1191 C   0  0  1  0  0  0
    9.1044   -2.2137   23.5095 C   0  0  0  0  0  0
    9.3771   -1.9897   24.6914 O   0  0  0  0  0  0
    9.9331   -1.9289   22.4834 N   0  0  0  0  0  0
   11.1403   -1.2207   22.5554 C   0  0  0  0  0  0
   12.2739   -1.8405   22.0218 C   0  0  0  0  0  0
   13.4823   -1.2446   21.9080 N   0  0  0  0  0  0
   13.5696    0.0455   22.3000 C   0  0  0  0  0  0
   12.5020    0.8069   22.8125 C   0  0  0  0  0  0
   12.6334    2.1834   23.1080 C   0  0  0  0  0  0
   11.5586    2.8874   23.6379 C   0  0  0  0  0  0
   10.3546    2.2453   23.8938 C   0  0  0  0  0  0
   10.1806    0.9048   23.5584 C   0  0  0  0  0  0
   11.2469    0.1466   22.9947 C   0  0  0  0  0  0
    6.7384   -2.8662   24.2895 C   0  0  0  0  0  0
    5.6378   -2.0010   24.4155 C   0  0  0  0  0  0
    4.7792   -2.0946   25.5108 C   0  0  0  0  0  0
    5.0103   -3.0486   26.5007 C   0  0  0  0  0  0
    6.0993   -3.9120   26.3936 C   0  0  0  0  0  0
    6.4014   -5.0834   27.6248 Cl  0  0  0  0  0  0
    6.9509   -3.8235   25.2931 C   0  0  0  0  0  0
    5.6104    1.2928   20.4395 C   0  0  0  0  0  0
    5.5695    2.5134   21.1091 C   0  0  0  0  0  0
    5.5696    5.2582   20.9429 H   0  0  0  0  0  0
    5.8834    6.2072   22.3798 H   0  0  0  0  0  0
    8.8658    2.7947   21.8756 H   0  0  0  0  0  0
    8.9239    0.6248   20.7338 H   0  0  0  0  0  0
    5.9695   -2.2525   18.9741 H   0  0  0  0  0  0
    4.9512   -1.1838   19.8872 H   0  0  0  0  0  0
    7.6611   -1.2097   21.7150 H   0  0  0  0  0  0
    7.9038   -3.8272   22.7869 H   0  0  0  0  0  0
    9.7057   -2.3215   21.5809 H   0  0  0  0  0  0
   12.2199   -2.8530   21.6489 H   0  0  0  0  0  0
   14.5235    0.5254   22.1476 H   0  0  0  0  0  0
   13.5739    2.6840   22.9325 H   0  0  0  0  0  0
   11.6631    3.9374   23.8701 H   0  0  0  0  0  0
    9.5308    2.8030   24.3176 H   0  0  0  0  0  0
    9.2147    0.4540   23.7212 H   0  0  0  0  0  0
    5.4394   -1.2424   23.6722 H   0  0  0  0  0  0
    3.9386   -1.4213   25.5926 H   0  0  0  0  0  0
    4.3480   -3.1156   27.3513 H   0  0  0  0  0  0
    7.7947   -4.4955   25.2265 H   0  0  0  0  0  0
    4.6966    0.9126   20.0103 H   0  0  0  0  0  0
    4.6256    3.0347   21.1894 H   0  0  0  0  0  0
  1  2  1  0  0  0
  1 36  1  0  0  0
  1 37  1  0  0  0
  2  3  2  0  0  0
  2  4  1  0  0  0
  4 35  2  0  0  0
  4  5  1  0  0  0
  5  6  2  0  0  0
  5 38  1  0  0  0
  6  7  1  0  0  0
  6 39  1  0  0  0
  7  8  1  0  0  0
  7 34  2  0  0  0
  8  9  1  0  0  0
  9 10  1  0  0  0
  9 40  1  0  0  0
  9 41  1  0  0  0
 10 11  2  0  0  0
 10 12  1  0  0  0
 12 13  1  0  0  0
 12 42  1  0  0  0
 13 14  1  0  0  0
 13 27  1  0  0  0
 13 43  1  0  0  0
 14 15  2  0  0  0
 14 16  1  0  0  0
 16 17  1  0  0  0
 16 44  1  0  0  0
 17 26  2  0  0  0
 17 18  1  0  0  0
 18 19  2  0  0  0
 18 45  1  0  0  0
 19 20  1  0  0  0
 20 21  2  0  0  0
 20 46  1  0  0  0
 21 26  1  0  0  0
 21 22  1  0  0  0
 22 23  2  0  0  0
 22 47  1  0  0  0
 23 24  1  0  0  0
 23 48  1  0  0  0
 24 25  2  0  0  0
 24 49  1  0  0  0
 25 26  1  0  0  0
 25 50  1  0  0  0
 27 33  2  0  0  0
 27 28  1  0  0  0
 28 29  2  0  0  0
 28 51  1  0  0  0
 29 30  1  0  0  0
 29 52  1  0  0  0
 30 31  2  0  0  0
 30 53  1  0  0  0
 31 32  1  0  0  0
 31 33  1  0  0  0
 33 54  1  0  0  0
 34 35  1  0  0  0
 34 55  1  0  0  0
 35 56  1  0  0  0
M  END
> <r_i_docking_score>
-7.16477952259264

$$$$
ligprep_5.maegz:72
                    3D
 Schrodinger Suite 2020-4.
 57 61  0  0  1  0            999 V2000
    9.9611   -0.3615   21.5095 O   0  0  0  0  0  0
    9.3060   -1.0251   22.3125 C   0  0  0  0  0  0
    9.4475   -2.5580   22.2768 C   0  0  0  0  0  0
    8.6138   -3.2576   23.2822 N   0  0  0  0  0  0
    9.1681   -3.3983   24.5536 N   0  0  0  0  0  0
    8.5341   -4.0674   25.4492 C   0  0  0  0  0  0
    7.3002   -4.6051   25.1804 N   0  0  0  0  0  0
    6.6490   -4.5126   23.9799 C   0  0  0  0  0  0
    5.5534   -5.0197   23.7234 O   0  0  0  0  0  0
    7.3670   -3.7182   22.8995 C   0  0  0  0  0  0
    6.7996   -3.5432   21.8153 O   0  0  0  0  0  0
    6.7564   -5.3293   26.3296 C   0  0  0  0  0  0
    7.9582   -5.4900   27.2549 C   0  0  0  0  0  0
    8.9285   -4.3807   26.8741 C   0  0  0  0  0  0
    8.4543   -0.4608   23.1955 N   0  0  0  0  0  0
    8.1777    0.9743   23.4161 C   0  0  1  0  0  0
    9.4412    1.8600   23.6439 C   0  0  0  0  0  0
   10.4038    1.3775   24.2508 O   0  0  0  0  0  0
    9.3795    3.1428   23.2365 N   0  0  0  0  0  0
   10.3671    4.0972   23.5075 C   0  0  0  0  0  0
   11.5903    4.0450   22.8283 C   0  0  0  0  0  0
   12.5847    4.9455   23.0009 N   0  0  0  0  0  0
   12.3692    5.9409   23.8885 C   0  0  0  0  0  0
   11.1922    6.1009   24.6517 C   0  0  0  0  0  0
   11.0212    7.1474   25.5889 C   0  0  0  0  0  0
    9.8317    7.2560   26.3033 C   0  0  0  0  0  0
    8.8026    6.3416   26.1082 C   0  0  0  0  0  0
    8.9458    5.2970   25.1989 C   0  0  0  0  0  0
   10.1454    5.1504   24.4482 C   0  0  0  0  0  0
    7.1168    1.5226   22.4655 C   0  0  0  0  0  0
    6.9913    1.1034   21.1292 C   0  0  0  0  0  0
    5.9918    1.6271   20.3066 C   0  0  0  0  0  0
    5.1147    2.5907   20.7999 C   0  0  0  0  0  0
    5.2250    3.0167   22.1211 C   0  0  0  0  0  0
    4.1378    4.2022   22.7426 Cl  0  0  0  0  0  0
    6.2162    2.4854   22.9443 C   0  0  0  0  0  0
    9.2165   -2.8800   21.2622 H   0  0  0  0  0  0
   10.4947   -2.8266   22.4222 H   0  0  0  0  0  0
    5.9697   -4.7336   26.7955 H   0  0  0  0  0  0
    6.3118   -6.2853   26.0454 H   0  0  0  0  0  0
    7.6703   -5.4804   28.3067 H   0  0  0  0  0  0
    8.4313   -6.4524   27.0680 H   0  0  0  0  0  0
    9.9685   -4.6996   26.9480 H   0  0  0  0  0  0
    8.7843   -3.5022   27.5028 H   0  0  0  0  0  0
    7.9359   -1.0785   23.7990 H   0  0  0  0  0  0
    7.7318    0.9707   24.4118 H   0  0  0  0  0  0
    8.5431    3.4648   22.7704 H   0  0  0  0  0  0
   11.7827    3.2680   22.1040 H   0  0  0  0  0  0
   13.1690    6.6532   24.0006 H   0  0  0  0  0  0
   11.8155    7.8622   25.7421 H   0  0  0  0  0  0
    9.7029    8.0606   27.0124 H   0  0  0  0  0  0
    7.8834    6.4443   26.6658 H   0  0  0  0  0  0
    8.1401    4.5906   25.0658 H   0  0  0  0  0  0
    7.6632    0.3765   20.7053 H   0  0  0  0  0  0
    5.9021    1.3006   19.2805 H   0  0  0  0  0  0
    4.3630    3.0191   20.1533 H   0  0  0  0  0  0
    6.2786    2.8246   23.9678 H   0  0  0  0  0  0
  1  2  2  0  0  0
  2  3  1  0  0  0
  2 15  1  0  0  0
  3  4  1  0  0  0
  3 37  1  0  0  0
  3 38  1  0  0  0
  4 10  1  0  0  0
  4  5  1  0  0  0
  5  6  2  0  0  0
  6 14  1  0  0  0
  6  7  1  0  0  0
  7  8  1  0  0  0
  7 12  1  0  0  0
  8  9  2  0  0  0
  8 10  1  0  0  0
 10 11  2  0  0  0
 12 13  1  0  0  0
 12 39  1  0  0  0
 12 40  1  0  0  0
 13 14  1  0  0  0
 13 41  1  0  0  0
 13 42  1  0  0  0
 14 43  1  0  0  0
 14 44  1  0  0  0
 15 16  1  0  0  0
 15 45  1  0  0  0
 16 17  1  0  0  0
 16 30  1  0  0  0
 16 46  1  0  0  0
 17 18  2  0  0  0
 17 19  1  0  0  0
 19 20  1  0  0  0
 19 47  1  0  0  0
 20 29  2  0  0  0
 20 21  1  0  0  0
 21 22  2  0  0  0
 21 48  1  0  0  0
 22 23  1  0  0  0
 23 24  2  0  0  0
 23 49  1  0  0  0
 24 29  1  0  0  0
 24 25  1  0  0  0
 25 26  2  0  0  0
 25 50  1  0  0  0
 26 27  1  0  0  0
 26 51  1  0  0  0
 27 28  2  0  0  0
 27 52  1  0  0  0
 28 29  1  0  0  0
 28 53  1  0  0  0
 30 36  2  0  0  0
 30 31  1  0  0  0
 31 32  2  0  0  0
 31 54  1  0  0  0
 32 33  1  0  0  0
 32 55  1  0  0  0
 33 34  2  0  0  0
 33 56  1  0  0  0
 34 35  1  0  0  0
 34 36  1  0  0  0
 36 57  1  0  0  0
M  END
> <r_i_docking_score>
-4.89314679512387

$$$$
ligprep_5.maegz:73
                    3D
 Schrodinger Suite 2020-4.
 56 60  0  0  1  0            999 V2000
    9.5690   -0.8533   21.1080 O   0  0  0  0  0  0
    9.6137   -1.3871   22.2098 C   0  0  0  0  0  0
   10.9062   -1.3249   23.0424 C   0  0  0  0  0  0
   11.4299    0.1078   23.1467 C   0  0  0  0  0  0
   10.5969    1.1160   23.6425 C   0  0  0  0  0  0
   11.0100    2.4408   23.6091 C   0  0  0  0  0  0
   12.2739    2.7644   23.1073 C   0  0  0  0  0  0
   12.6467    4.1254   23.0234 N   0  0  0  0  0  0
   12.2267    5.1858   23.7954 C   0  0  0  0  0  0
   12.7695    6.3034   23.3934 N   0  0  0  0  0  0
   13.5693    5.9468   22.3083 N   0  0  0  0  0  0
   13.4926    4.5868   22.0918 N   0  0  0  0  0  0
   13.1448    1.7498   22.6872 C   0  0  0  0  0  0
   12.7190    0.4228   22.7075 C   0  0  0  0  0  0
    8.5515   -1.9909   22.7642 N   0  0  0  0  0  0
    7.2020   -2.1640   22.1678 C   0  0  1  0  0  0
    6.1824   -2.8511   23.1161 C   0  0  0  0  0  0
    5.1190   -3.2606   22.6432 O   0  0  0  0  0  0
    6.5435   -2.9841   24.4121 N   0  0  0  0  0  0
    5.8739   -3.7315   25.3845 C   0  0  0  0  0  0
    6.5031   -4.8857   25.8575 C   0  0  0  0  0  0
    6.0015   -5.6640   26.8407 N   0  0  0  0  0  0
    4.8285   -5.2937   27.3969 C   0  0  0  0  0  0
    4.1028   -4.1371   27.0356 C   0  0  0  0  0  0
    2.8950   -3.7650   27.6744 C   0  0  0  0  0  0
    2.2475   -2.5898   27.3053 C   0  0  0  0  0  0
    2.7740   -1.7767   26.3079 C   0  0  0  0  0  0
    3.9504   -2.1245   25.6497 C   0  0  0  0  0  0
    4.6447   -3.3172   25.9954 C   0  0  0  0  0  0
    6.6537   -0.8786   21.5632 C   0  0  0  0  0  0
    6.4484    0.2678   22.3463 C   0  0  0  0  0  0
    5.9766    1.4502   21.7686 C   0  0  0  0  0  0
    5.7060    1.5031   20.4015 C   0  0  0  0  0  0
    5.9021    0.3717   19.6114 C   0  0  0  0  0  0
    5.5731    0.4349   17.9173 Cl  0  0  0  0  0  0
    6.3658   -0.8107   20.1910 C   0  0  0  0  0  0
   10.7509   -1.7213   24.0465 H   0  0  0  0  0  0
   11.6424   -1.9734   22.5666 H   0  0  0  0  0  0
    9.6031    0.8804   23.9980 H   0  0  0  0  0  0
   10.3221    3.2057   23.9373 H   0  0  0  0  0  0
   11.5324    5.0526   24.6110 H   0  0  0  0  0  0
   14.1293    1.9854   22.3066 H   0  0  0  0  0  0
   13.3738   -0.3501   22.3340 H   0  0  0  0  0  0
    8.7257   -2.5023   23.6147 H   0  0  0  0  0  0
    7.3542   -2.8875   21.3639 H   0  0  0  0  0  0
    7.4457   -2.6363   24.6857 H   0  0  0  0  0  0
    7.4457   -5.2176   25.4435 H   0  0  0  0  0  0
    4.4554   -5.9369   28.1804 H   0  0  0  0  0  0
    2.4878   -4.3905   28.4558 H   0  0  0  0  0  0
    1.3326   -2.3016   27.8028 H   0  0  0  0  0  0
    2.2659   -0.8621   26.0395 H   0  0  0  0  0  0
    4.3410   -1.4821   24.8744 H   0  0  0  0  0  0
    6.6562    0.2439   23.4064 H   0  0  0  0  0  0
    5.8191    2.3289   22.3764 H   0  0  0  0  0  0
    5.3446    2.4210   19.9549 H   0  0  0  0  0  0
    6.5249   -1.6694   19.5577 H   0  0  0  0  0  0
  1  2  2  0  0  0
  2  3  1  0  0  0
  2 15  1  0  0  0
  3  4  1  0  0  0
  3 37  1  0  0  0
  3 38  1  0  0  0
  4 14  2  0  0  0
  4  5  1  0  0  0
  5  6  2  0  0  0
  5 39  1  0  0  0
  6  7  1  0  0  0
  6 40  1  0  0  0
  7  8  1  0  0  0
  7 13  2  0  0  0
  8 12  1  0  0  0
  8  9  1  0  0  0
  9 10  2  0  0  0
  9 41  1  0  0  0
 10 11  1  0  0  0
 11 12  2  0  0  0
 13 14  1  0  0  0
 13 42  1  0  0  0
 14 43  1  0  0  0
 15 16  1  0  0  0
 15 44  1  0  0  0
 16 17  1  0  0  0
 16 30  1  0  0  0
 16 45  1  0  0  0
 17 18  2  0  0  0
 17 19  1  0  0  0
 19 20  1  0  0  0
 19 46  1  0  0  0
 20 29  2  0  0  0
 20 21  1  0  0  0
 21 22  2  0  0  0
 21 47  1  0  0  0
 22 23  1  0  0  0
 23 24  2  0  0  0
 23 48  1  0  0  0
 24 29  1  0  0  0
 24 25  1  0  0  0
 25 26  2  0  0  0
 25 49  1  0  0  0
 26 27  1  0  0  0
 26 50  1  0  0  0
 27 28  2  0  0  0
 27 51  1  0  0  0
 28 29  1  0  0  0
 28 52  1  0  0  0
 30 36  2  0  0  0
 30 31  1  0  0  0
 31 32  2  0  0  0
 31 53  1  0  0  0
 32 33  1  0  0  0
 32 54  1  0  0  0
 33 34  2  0  0  0
 33 55  1  0  0  0
 34 35  1  0  0  0
 34 36  1  0  0  0
 36 56  1  0  0  0
M  END
> <r_i_docking_score>
-6.35198460394035

$$$$
ligprep_5.maegz:74
                    3D
 Schrodinger Suite 2020-4.
 51 54  0  0  1  0            999 V2000
    9.4775    1.4947   21.1102 O   0  0  0  0  0  0
    9.2916    0.9067   22.1788 C   0  0  0  0  0  0
   10.0741    1.2688   23.4616 C   0  0  0  0  0  0
   11.0788    2.3199   23.2175 N   0  0  0  0  0  0
   10.7912    3.6528   23.3818 C   0  0  0  0  0  0
   11.6407    4.6568   23.0946 C   0  0  0  0  0  0
   11.1772    6.3471   23.3160 Cl  0  0  0  0  0  0
   12.9557    4.3309   22.5601 C   0  0  0  0  0  0
   13.8124    5.1470   22.2233 O   0  0  0  0  0  0
   13.1694    2.9870   22.4676 N   0  0  0  0  0  0
   12.3407    1.9422   22.7897 C   0  0  0  0  0  0
   12.7549    0.7835   22.7164 O   0  0  0  0  0  0
    8.3934   -0.0850   22.3232 N   0  0  0  0  0  0
    7.6216   -0.7543   21.2476 C   0  0  1  0  0  0
    6.8141   -2.0009   21.7272 C   0  0  0  0  0  0
    5.9674   -2.4834   20.9701 O   0  0  0  0  0  0
    7.0965   -2.4994   22.9535 N   0  0  0  0  0  0
    6.3825   -3.4641   23.6984 C   0  0  0  0  0  0
    5.0289   -3.7614   23.4575 C   0  0  0  0  0  0
    4.2990   -4.6344   24.1853 N   0  0  0  0  0  0
    4.9085   -5.2363   25.2286 C   0  0  0  0  0  0
    6.2516   -5.0172   25.6063 C   0  0  0  0  0  0
    6.8355   -5.6509   26.7281 C   0  0  0  0  0  0
    8.1647   -5.4064   27.0532 C   0  0  0  0  0  0
    8.9359   -4.5525   26.2748 C   0  0  0  0  0  0
    8.3868   -3.9058   25.1695 C   0  0  0  0  0  0
    7.0226   -4.1143   24.8081 C   0  0  0  0  0  0
    6.7266    0.2132   20.4943 C   0  0  0  0  0  0
    6.5982    0.1079   19.1026 C   0  0  0  0  0  0
    5.7260    0.9443   18.4030 C   0  0  0  0  0  0
    4.9668    1.8939   19.0891 C   0  0  0  0  0  0
    5.0856    2.0075   20.4738 C   0  0  0  0  0  0
    4.1206    3.1514   21.3326 Cl  0  0  0  0  0  0
    5.9680    1.1802   21.1715 C   0  0  0  0  0  0
   10.5498    0.3731   23.8654 H   0  0  0  0  0  0
    9.3760    1.5995   24.2305 H   0  0  0  0  0  0
    9.7914    3.8188   23.7646 H   0  0  0  0  0  0
   14.0836    2.7190   22.1348 H   0  0  0  0  0  0
    8.2688   -0.4582   23.2527 H   0  0  0  0  0  0
    8.3728   -1.1555   20.5592 H   0  0  0  0  0  0
    7.9099   -2.1356   23.4231 H   0  0  0  0  0  0
    4.4716   -3.2690   22.6769 H   0  0  0  0  0  0
    4.3008   -5.9205   25.8046 H   0  0  0  0  0  0
    6.2499   -6.3339   27.3263 H   0  0  0  0  0  0
    8.6075   -5.9014   27.9073 H   0  0  0  0  0  0
    9.9724   -4.3973   26.5323 H   0  0  0  0  0  0
    9.0123   -3.2514   24.5831 H   0  0  0  0  0  0
    7.1658   -0.6357   18.5577 H   0  0  0  0  0  0
    5.6342    0.8562   17.3297 H   0  0  0  0  0  0
    4.2937    2.5433   18.5445 H   0  0  0  0  0  0
    6.0296    1.2706   22.2466 H   0  0  0  0  0  0
  1  2  2  0  0  0
  2  3  1  0  0  0
  2 13  1  0  0  0
  3  4  1  0  0  0
  3 35  1  0  0  0
  3 36  1  0  0  0
  4 11  1  0  0  0
  4  5  1  0  0  0
  5  6  2  0  0  0
  5 37  1  0  0  0
  6  7  1  0  0  0
  6  8  1  0  0  0
  8  9  2  0  0  0
  8 10  1  0  0  0
 10 11  1  0  0  0
 10 38  1  0  0  0
 11 12  2  0  0  0
 13 14  1  0  0  0
 13 39  1  0  0  0
 14 15  1  0  0  0
 14 28  1  0  0  0
 14 40  1  0  0  0
 15 16  2  0  0  0
 15 17  1  0  0  0
 17 18  1  0  0  0
 17 41  1  0  0  0
 18 27  2  0  0  0
 18 19  1  0  0  0
 19 20  2  0  0  0
 19 42  1  0  0  0
 20 21  1  0  0  0
 21 22  2  0  0  0
 21 43  1  0  0  0
 22 27  1  0  0  0
 22 23  1  0  0  0
 23 24  2  0  0  0
 23 44  1  0  0  0
 24 25  1  0  0  0
 24 45  1  0  0  0
 25 26  2  0  0  0
 25 46  1  0  0  0
 26 27  1  0  0  0
 26 47  1  0  0  0
 28 34  2  0  0  0
 28 29  1  0  0  0
 29 30  2  0  0  0
 29 48  1  0  0  0
 30 31  1  0  0  0
 30 49  1  0  0  0
 31 32  2  0  0  0
 31 50  1  0  0  0
 32 33  1  0  0  0
 32 34  1  0  0  0
 34 51  1  0  0  0
M  END
> <r_i_docking_score>
-7.76994245672039

$$$$
ligprep_5.maegz:75
                    3D
 Schrodinger Suite 2020-4.
 43 46  0  0  1  0            999 V2000
    8.7695    2.3403   21.1100 O   0  0  0  0  0  0
    8.5458    1.7167   22.1482 C   0  0  0  0  0  0
    8.9164    2.1838   23.3625 N   0  0  0  0  0  0
    9.5439    3.4194   23.5879 C   0  0  0  0  0  0
    8.8043    4.4322   24.2053 C   0  0  0  0  0  0
    9.2886    5.6680   24.4663 N   0  0  0  0  0  0
   10.5653    5.9251   24.1073 C   0  0  0  0  0  0
   11.4316    4.9920   23.4932 C   0  0  0  0  0  0
   12.7646    5.3065   23.1343 C   0  0  0  0  0  0
   13.5698    4.3436   22.5392 C   0  0  0  0  0  0
   13.0891    3.0605   22.3082 C   0  0  0  0  0  0
   11.7843    2.7219   22.6554 C   0  0  0  0  0  0
   10.9116    3.6833   23.2363 C   0  0  0  0  0  0
    7.8795    0.2981   22.0874 C   0  0  2  0  0  0
    7.4989   -0.0809   20.6128 C   0  0  0  0  0  0
    6.4849    0.7195   20.0313 O   0  0  0  0  0  0
    6.6213    0.2743   23.0189 C   0  0  0  0  0  0
    6.2901   -1.1538   23.4806 C   0  0  0  0  0  0
    7.3849   -1.6831   24.2270 O   0  0  0  0  0  0
    8.6129   -1.6408   23.5947 C   0  0  0  0  0  0
    9.5572   -2.5480   24.0734 C   0  0  0  0  0  0
   10.8433   -2.5501   23.5451 C   0  0  0  0  0  0
   11.1937   -1.6616   22.5387 C   0  0  0  0  0  0
   12.8010   -1.6533   21.9080 Cl  0  0  0  0  0  0
   10.2424   -0.7695   22.0514 C   0  0  0  0  0  0
    8.9427   -0.7056   22.5900 C   0  0  0  0  0  0
    8.6173    1.6667   24.1787 H   0  0  0  0  0  0
    7.7740    4.2658   24.4838 H   0  0  0  0  0  0
   10.9254    6.9235   24.3174 H   0  0  0  0  0  0
   13.1567    6.2967   23.3284 H   0  0  0  0  0  0
   14.5872    4.5877   22.2723 H   0  0  0  0  0  0
   13.7336    2.3221   21.8523 H   0  0  0  0  0  0
   11.4265    1.7227   22.4651 H   0  0  0  0  0  0
    8.3693   -0.0356   19.9567 H   0  0  0  0  0  0
    7.1638   -1.1173   20.5688 H   0  0  0  0  0  0
    5.6499    0.5469   20.4747 H   0  0  0  0  0  0
    5.7561    0.7164   22.5249 H   0  0  0  0  0  0
    6.7594    0.8702   23.9231 H   0  0  0  0  0  0
    6.0752   -1.7894   22.6186 H   0  0  0  0  0  0
    5.3981   -1.1502   24.1084 H   0  0  0  0  0  0
    9.2952   -3.2428   24.8580 H   0  0  0  0  0  0
   11.5717   -3.2560   23.9106 H   0  0  0  0  0  0
   10.5292   -0.0982   21.2553 H   0  0  0  0  0  0
  1  2  2  0  0  0
  2  3  1  0  0  0
  2 14  1  0  0  0
  3  4  1  0  0  0
  3 27  1  0  0  0
  4 13  2  0  0  0
  4  5  1  0  0  0
  5  6  2  0  0  0
  5 28  1  0  0  0
  6  7  1  0  0  0
  7  8  2  0  0  0
  7 29  1  0  0  0
  8 13  1  0  0  0
  8  9  1  0  0  0
  9 10  2  0  0  0
  9 30  1  0  0  0
 10 11  1  0  0  0
 10 31  1  0  0  0
 11 12  2  0  0  0
 11 32  1  0  0  0
 12 13  1  0  0  0
 12 33  1  0  0  0
 14 26  1  0  0  0
 14 15  1  0  0  0
 14 17  1  0  0  0
 15 16  1  0  0  0
 15 34  1  0  0  0
 15 35  1  0  0  0
 16 36  1  0  0  0
 17 18  1  0  0  0
 17 37  1  0  0  0
 17 38  1  0  0  0
 18 19  1  0  0  0
 18 39  1  0  0  0
 18 40  1  0  0  0
 19 20  1  0  0  0
 20 26  2  0  0  0
 20 21  1  0  0  0
 21 22  2  0  0  0
 21 41  1  0  0  0
 22 23  1  0  0  0
 22 42  1  0  0  0
 23 24  1  0  0  0
 23 25  2  0  0  0
 25 26  1  0  0  0
 25 43  1  0  0  0
M  END
> <r_i_docking_score>
-6.0986101442957

$$$$
ligprep_5.maegz:76
                    3D
 Schrodinger Suite 2020-4.
 51 54  0  0  1  0            999 V2000
    6.6989   -6.5352   22.2613 C   0  0  0  0  0  0
    7.2169   -5.2566   21.9276 O   0  0  0  0  0  0
    6.3860   -4.2046   21.7905 C   0  0  0  0  0  0
    5.1642   -4.2595   21.9093 O   0  0  0  0  0  0
    7.1019   -2.9738   21.5098 C   0  0  0  0  0  0
    6.4826   -1.7831   21.3501 C   0  0  0  0  0  0
    7.2404   -0.5602   21.1975 C   0  0  0  0  0  0
    7.3295   -0.0892   20.0599 O   0  0  0  0  0  0
    7.7999   -0.0092   22.3415 N   0  0  0  0  0  0
    8.7399    1.0027   22.3002 C   0  0  0  0  0  0
    9.0044    1.6464   21.2751 O   0  0  0  0  0  0
    9.5777    1.3627   23.5775 C   0  0  2  0  0  0
    9.2228    2.7723   24.1152 C   0  0  0  0  0  0
    9.9801    3.8817   23.3587 C   0  0  0  0  0  0
   11.3925    3.6839   23.4753 O   0  0  0  0  0  0
   11.8452    2.4319   23.1067 C   0  0  0  0  0  0
   13.1688    2.3646   22.6701 C   0  0  0  0  0  0
   13.7187    1.1346   22.3081 C   0  0  0  0  0  0
   12.9537   -0.0249   22.4017 C   0  0  0  0  0  0
   13.5697   -1.5525   21.8973 Cl  0  0  0  0  0  0
   11.6488    0.0463   22.8663 C   0  0  0  0  0  0
   11.0602    1.2676   23.2088 C   0  0  0  0  0  0
    7.2775   -0.3964   23.6126 C   0  0  0  0  0  0
    6.1789    0.3055   24.1313 C   0  0  0  0  0  0
    5.5585   -0.0102   25.2908 N   0  0  0  0  0  0
    6.0222   -1.0782   25.9772 C   0  0  0  0  0  0
    7.1143   -1.8776   25.5752 C   0  0  0  0  0  0
    7.5446   -3.0107   26.3081 C   0  0  0  0  0  0
    8.6333   -3.7587   25.8693 C   0  0  0  0  0  0
    9.3078   -3.4024   24.7077 C   0  0  0  0  0  0
    8.8994   -2.3007   23.9624 C   0  0  0  0  0  0
    7.7830   -1.5163   24.3641 C   0  0  0  0  0  0
    7.5028   -7.2714   22.2923 H   0  0  0  0  0  0
    6.2113   -6.5164   23.2366 H   0  0  0  0  0  0
    5.9639   -6.8545   21.5209 H   0  0  0  0  0  0
    8.1784   -3.0602   21.4626 H   0  0  0  0  0  0
    5.4089   -1.6631   21.3627 H   0  0  0  0  0  0
    9.3806    0.6261   24.3518 H   0  0  0  0  0  0
    8.1489    2.9607   24.0550 H   0  0  0  0  0  0
    9.4856    2.8323   25.1729 H   0  0  0  0  0  0
    9.6917    3.8911   22.3090 H   0  0  0  0  0  0
    9.7270    4.8611   23.7638 H   0  0  0  0  0  0
   13.7648    3.2629   22.6055 H   0  0  0  0  0  0
   14.7321    1.0906   21.9351 H   0  0  0  0  0  0
   11.0750   -0.8606   22.9100 H   0  0  0  0  0  0
    5.7544    1.1387   23.5890 H   0  0  0  0  0  0
    5.4916   -1.3176   26.8877 H   0  0  0  0  0  0
    7.0162   -3.3020   27.2024 H   0  0  0  0  0  0
    8.9554   -4.6227   26.4318 H   0  0  0  0  0  0
   10.1510   -3.9928   24.3798 H   0  0  0  0  0  0
    9.4117   -2.0684   23.0442 H   0  0  0  0  0  0
  1  2  1  0  0  0
  1 33  1  0  0  0
  1 34  1  0  0  0
  1 35  1  0  0  0
  2  3  1  0  0  0
  3  4  2  0  0  0
  3  5  1  0  0  0
  5  6  2  0  0  0
  5 36  1  0  0  0
  6  7  1  0  0  0
  6 37  1  0  0  0
  7  8  2  0  0  0
  7  9  1  0  0  0
  9 10  1  0  0  0
  9 23  1  0  0  0
 10 11  2  0  0  0
 10 12  1  0  0  0
 12 13  1  0  0  0
 12 22  1  0  0  0
 12 38  1  0  0  0
 13 14  1  0  0  0
 13 39  1  0  0  0
 13 40  1  0  0  0
 14 15  1  0  0  0
 14 41  1  0  0  0
 14 42  1  0  0  0
 15 16  1  0  0  0
 16 22  2  0  0  0
 16 17  1  0  0  0
 17 18  2  0  0  0
 17 43  1  0  0  0
 18 19  1  0  0  0
 18 44  1  0  0  0
 19 20  1  0  0  0
 19 21  2  0  0  0
 21 22  1  0  0  0
 21 45  1  0  0  0
 23 32  2  0  0  0
 23 24  1  0  0  0
 24 25  2  0  0  0
 24 46  1  0  0  0
 25 26  1  0  0  0
 26 27  2  0  0  0
 26 47  1  0  0  0
 27 32  1  0  0  0
 27 28  1  0  0  0
 28 29  2  0  0  0
 28 48  1  0  0  0
 29 30  1  0  0  0
 29 49  1  0  0  0
 30 31  2  0  0  0
 30 50  1  0  0  0
 31 32  1  0  0  0
 31 51  1  0  0  0
M  END
> <r_i_docking_score>
-7.36707586735342

$$$$
ligprep_5.maegz:77
                    3D
 Schrodinger Suite 2020-4.
 66 71  0  0  1  0            999 V2000
    7.6812    1.9454   21.3217 O   0  0  0  0  0  0
    7.1215    1.8152   22.4124 C   0  0  0  0  0  0
    7.0412    0.3980   23.0515 C   0  0  0  0  0  0
    7.7407   -0.8377   22.3491 C   0  0  2  0  0  0
    9.3099   -0.7234   22.3252 C   0  0  0  0  0  0
    9.9639   -1.6802   21.9070 O   0  0  0  0  0  0
    9.8768    0.4241   22.7610 N   0  0  0  0  0  0
   11.2215    0.8389   22.7078 C   0  0  0  0  0  0
   12.2949   -0.0446   22.5023 C   0  0  0  0  0  0
   13.5697    0.3510   22.3079 N   0  0  0  0  0  0
   13.8126    1.6773   22.3080 C   0  0  0  0  0  0
   12.8582    2.6723   22.6062 C   0  0  0  0  0  0
   13.1893    4.0468   22.6930 C   0  0  0  0  0  0
   12.2137    4.9821   23.0191 C   0  0  0  0  0  0
   10.9030    4.5793   23.2447 C   0  0  0  0  0  0
   10.5462    3.2360   23.1456 C   0  0  0  0  0  0
   11.5157    2.2406   22.8294 C   0  0  0  0  0  0
    7.2705   -1.0463   20.8690 C   0  0  0  0  0  0
    5.9082   -1.7412   20.7987 C   0  0  0  0  0  0
    5.9721   -3.0411   21.3790 O   0  0  0  0  0  0
    6.5371   -3.1025   22.6380 C   0  0  0  0  0  0
    6.2439   -4.2677   23.3467 C   0  0  0  0  0  0
    6.8033   -4.4840   24.6031 C   0  0  0  0  0  0
    7.6536   -3.5299   25.1547 C   0  0  0  0  0  0
    8.3682   -3.8011   26.7041 Cl  0  0  0  0  0  0
    7.9381   -2.3620   24.4481 C   0  0  0  0  0  0
    7.4128   -2.1227   23.1625 C   0  0  0  0  0  0
    6.7764    2.9006   23.1596 N   0  0  0  0  0  0
    6.8024    4.2370   22.5112 C   0  0  0  0  0  0
    5.3890    4.5070   21.9504 C   0  0  0  0  0  0
    4.2852    4.3447   23.0146 C   0  0  0  0  0  0
    4.4464    3.0124   23.7783 C   0  0  0  0  0  0
    5.8829    2.8100   24.3452 C   0  0  2  0  0  0
    6.2710    3.8043   25.4387 C   0  0  0  0  0  0
    7.5589    4.2368   25.8147 C   0  0  0  0  0  0
    7.5651    5.1484   26.7571 N   0  0  0  0  0  0
    6.2770    5.3081   27.0571 N   0  0  0  0  0  0
    5.4532    4.5194   26.3028 C   0  0  0  0  0  0
    7.4162    0.4709   24.0734 H   0  0  0  0  0  0
    5.9777    0.1723   23.1385 H   0  0  0  0  0  0
    9.2284    1.1521   23.0147 H   0  0  0  0  0  0
   12.1630   -1.1142   22.4535 H   0  0  0  0  0  0
   14.8348    1.9660   22.1147 H   0  0  0  0  0  0
   14.2092    4.3610   22.5228 H   0  0  0  0  0  0
   12.4741    6.0284   23.0947 H   0  0  0  0  0  0
   10.1497    5.3166   23.4833 H   0  0  0  0  0  0
    9.5212    2.9573   23.3179 H   0  0  0  0  0  0
    7.2174   -0.1248   20.2965 H   0  0  0  0  0  0
    7.9798   -1.6522   20.3079 H   0  0  0  0  0  0
    5.1697   -1.1354   21.3225 H   0  0  0  0  0  0
    5.5793   -1.8319   19.7628 H   0  0  0  0  0  0
    5.5940   -5.0134   22.9146 H   0  0  0  0  0  0
    6.5830   -5.3929   25.1435 H   0  0  0  0  0  0
    8.6032   -1.6391   24.8982 H   0  0  0  0  0  0
    7.6107    4.3489   21.7854 H   0  0  0  0  0  0
    7.0423    4.9789   23.2714 H   0  0  0  0  0  0
    5.1983    3.8412   21.1080 H   0  0  0  0  0  0
    5.3546    5.5150   21.5358 H   0  0  0  0  0  0
    3.3032    4.3952   22.5420 H   0  0  0  0  0  0
    4.3320    5.1800   23.7142 H   0  0  0  0  0  0
    4.2075    2.1913   23.1009 H   0  0  0  0  0  0
    3.7109    2.9457   24.5808 H   0  0  0  0  0  0
    5.9142    1.8193   24.7960 H   0  0  0  0  0  0
    8.4828    3.9003   25.3684 H   0  0  0  0  0  0
    5.9685    5.9610   27.7626 H   0  0  0  0  0  0
    4.3801    4.5565   26.4255 H   0  0  0  0  0  0
  1  2  2  0  0  0
  2  3  1  0  0  0
  2 28  1  0  0  0
  3  4  1  0  0  0
  3 39  1  0  0  0
  3 40  1  0  0  0
  4 27  1  0  0  0
  4  5  1  0  0  0
  4 18  1  0  0  0
  5  6  2  0  0  0
  5  7  1  0  0  0
  7  8  1  0  0  0
  7 41  1  0  0  0
  8 17  2  0  0  0
  8  9  1  0  0  0
  9 10  2  0  0  0
  9 42  1  0  0  0
 10 11  1  0  0  0
 11 12  2  0  0  0
 11 43  1  0  0  0
 12 17  1  0  0  0
 12 13  1  0  0  0
 13 14  2  0  0  0
 13 44  1  0  0  0
 14 15  1  0  0  0
 14 45  1  0  0  0
 15 16  2  0  0  0
 15 46  1  0  0  0
 16 17  1  0  0  0
 16 47  1  0  0  0
 18 19  1  0  0  0
 18 48  1  0  0  0
 18 49  1  0  0  0
 19 20  1  0  0  0
 19 50  1  0  0  0
 19 51  1  0  0  0
 20 21  1  0  0  0
 21 27  2  0  0  0
 21 22  1  0  0  0
 22 23  2  0  0  0
 22 52  1  0  0  0
 23 24  1  0  0  0
 23 53  1  0  0  0
 24 25  1  0  0  0
 24 26  2  0  0  0
 26 27  1  0  0  0
 26 54  1  0  0  0
 28 33  1  0  0  0
 28 29  1  0  0  0
 29 30  1  0  0  0
 29 55  1  0  0  0
 29 56  1  0  0  0
 30 31  1  0  0  0
 30 57  1  0  0  0
 30 58  1  0  0  0
 31 32  1  0  0  0
 31 59  1  0  0  0
 31 60  1  0  0  0
 32 33  1  0  0  0
 32 61  1  0  0  0
 32 62  1  0  0  0
 33 34  1  0  0  0
 33 63  1  0  0  0
 34 38  2  0  0  0
 34 35  1  0  0  0
 35 36  2  0  0  0
 35 64  1  0  0  0
 36 37  1  0  0  0
 37 38  1  0  0  0
 37 65  1  0  0  0
 38 66  1  0  0  0
M  END
> <r_i_docking_score>
-5.41160738575872

$$$$
ligprep_5.maegz:78
                    3D
 Schrodinger Suite 2020-4.
 64 68  0  0  1  0            999 V2000
    5.5780    2.4300   27.8166 C   0  0  0  0  0  0
    5.6289    1.7088   26.4548 C   0  0  2  0  0  0
    4.5571    0.5955   26.3059 C   0  0  0  0  0  0
    4.8219   -0.5330   27.2042 N   0  0  1  0  0  0
    3.7567   -1.5259   27.0998 C   0  0  0  0  0  0
    6.1157   -1.1369   26.8687 C   0  0  0  0  0  0
    7.2776   -0.1118   26.9702 C   0  0  0  0  0  0
    6.9385    1.0780   26.1569 N   0  0  0  0  0  0
    7.7965    1.6681   25.2799 C   0  0  0  0  0  0
    7.5454    2.7575   24.7623 O   0  0  0  0  0  0
    9.1379    1.0071   24.8772 C   0  0  0  0  0  0
    9.1420   -0.0092   23.6643 C   0  0  2  0  0  0
    8.4966    0.6680   22.3894 C   0  0  0  0  0  0
    9.1530    1.4262   21.6646 O   0  0  0  0  0  0
    7.2047    0.3869   22.1302 N   0  0  0  0  0  0
    6.4899    0.8433   21.0227 C   0  0  0  0  0  0
    6.7732    0.3293   19.7515 C   0  0  0  0  0  0
    6.0785    0.6597   18.6398 N   0  0  0  0  0  0
    5.0557    1.5309   18.7913 C   0  0  0  0  0  0
    4.6596    2.1145   20.0119 C   0  0  0  0  0  0
    3.5600    2.9994   20.1185 C   0  0  0  0  0  0
    3.2251    3.5484   21.3533 C   0  0  0  0  0  0
    3.9598    3.2301   22.4906 C   0  0  0  0  0  0
    5.0402    2.3546   22.4148 C   0  0  0  0  0  0
    5.4141    1.7714   21.1725 C   0  0  0  0  0  0
    8.3955   -1.3359   24.0368 C   0  0  0  0  0  0
    8.7070   -2.4861   23.0642 C   0  0  0  0  0  0
   10.0936   -2.7873   23.1514 O   0  0  0  0  0  0
   10.9411   -1.7171   22.9591 C   0  0  0  0  0  0
   12.2093   -2.0507   22.4860 C   0  0  0  0  0  0
   13.1647   -1.0574   22.2984 C   0  0  0  0  0  0
   12.8466    0.2637   22.5943 C   0  0  0  0  0  0
   13.9697    1.5264   22.3078 Cl  0  0  0  0  0  0
   11.5878    0.5909   23.0756 C   0  0  0  0  0  0
   10.5918   -0.3805   23.2590 C   0  0  0  0  0  0
    4.5964    2.8764   27.9761 H   0  0  0  0  0  0
    6.3151    3.2318   27.8695 H   0  0  0  0  0  0
    5.7439    1.7446   28.6477 H   0  0  0  0  0  0
    5.3966    2.4735   25.7110 H   0  0  0  0  0  0
    3.5653    1.0130   26.4876 H   0  0  0  0  0  0
    4.5499    0.2395   25.2726 H   0  0  0  0  0  0
    3.9436   -2.3639   27.7737 H   0  0  0  0  0  0
    2.7965   -1.0907   27.3826 H   0  0  0  0  0  0
    3.6660   -1.9193   26.0852 H   0  0  0  0  0  0
    6.3143   -1.9939   27.5098 H   0  0  0  0  0  0
    6.0492   -1.5198   25.8502 H   0  0  0  0  0  0
    7.3812    0.1973   28.0105 H   0  0  0  0  0  0
    8.2167   -0.5867   26.7072 H   0  0  0  0  0  0
    9.7870    1.8512   24.6464 H   0  0  0  0  0  0
    9.6232    0.5709   25.7490 H   0  0  0  0  0  0
    6.6729   -0.1169   22.8247 H   0  0  0  0  0  0
    7.5723   -0.3834   19.6082 H   0  0  0  0  0  0
    4.5006    1.7804   17.9079 H   0  0  0  0  0  0
    3.0038    3.2669   19.2309 H   0  0  0  0  0  0
    2.3985    4.2398   21.4243 H   0  0  0  0  0  0
    3.6924    3.6711   23.4395 H   0  0  0  0  0  0
    5.5923    2.1107   23.3071 H   0  0  0  0  0  0
    8.7278   -1.6770   25.0161 H   0  0  0  0  0  0
    7.3202   -1.1968   24.1255 H   0  0  0  0  0  0
    8.1369   -3.3778   23.3275 H   0  0  0  0  0  0
    8.4426   -2.2169   22.0392 H   0  0  0  0  0  0
   12.4479   -3.0794   22.2657 H   0  0  0  0  0  0
   14.1403   -1.3128   21.9145 H   0  0  0  0  0  0
   11.3702    1.6351   23.2409 H   0  0  0  0  0  0
  1  2  1  0  0  0
  1 36  1  0  0  0
  1 37  1  0  0  0
  1 38  1  0  0  0
  2  8  1  0  0  0
  2  3  1  0  0  0
  2 39  1  0  0  0
  3  4  1  0  0  0
  3 40  1  0  0  0
  3 41  1  0  0  0
  4  5  1  0  0  0
  4  6  1  0  0  0
  5 42  1  0  0  0
  5 43  1  0  0  0
  5 44  1  0  0  0
  6  7  1  0  0  0
  6 45  1  0  0  0
  6 46  1  0  0  0
  7  8  1  0  0  0
  7 47  1  0  0  0
  7 48  1  0  0  0
  8  9  1  0  0  0
  9 10  2  0  0  0
  9 11  1  0  0  0
 11 12  1  0  0  0
 11 49  1  0  0  0
 11 50  1  0  0  0
 12 35  1  0  0  0
 12 13  1  0  0  0
 12 26  1  0  0  0
 13 14  2  0  0  0
 13 15  1  0  0  0
 15 16  1  0  0  0
 15 51  1  0  0  0
 16 25  2  0  0  0
 16 17  1  0  0  0
 17 18  2  0  0  0
 17 52  1  0  0  0
 18 19  1  0  0  0
 19 20  2  0  0  0
 19 53  1  0  0  0
 20 25  1  0  0  0
 20 21  1  0  0  0
 21 22  2  0  0  0
 21 54  1  0  0  0
 22 23  1  0  0  0
 22 55  1  0  0  0
 23 24  2  0  0  0
 23 56  1  0  0  0
 24 25  1  0  0  0
 24 57  1  0  0  0
 26 27  1  0  0  0
 26 58  1  0  0  0
 26 59  1  0  0  0
 27 28  1  0  0  0
 27 60  1  0  0  0
 27 61  1  0  0  0
 28 29  1  0  0  0
 29 35  2  0  0  0
 29 30  1  0  0  0
 30 31  2  0  0  0
 30 62  1  0  0  0
 31 32  1  0  0  0
 31 63  1  0  0  0
 32 33  1  0  0  0
 32 34  2  0  0  0
 34 35  1  0  0  0
 34 64  1  0  0  0
M  END
> <r_i_docking_score>
-4.7791233354275

$$$$
ligprep_5.maegz:79
                    3D
 Schrodinger Suite 2020-4.
 63 67  0  0  1  0            999 V2000
    8.7695    1.5556   20.7082 O   0  0  0  0  0  0
    8.9867    0.6552   21.5086 C   0  0  0  0  0  0
    8.3387   -0.7088   21.1822 C   0  0  0  0  0  0
    6.7753   -0.7162   20.8645 C   0  0  2  0  0  0
    6.1945   -2.0431   21.5076 C   0  0  0  0  0  0
    5.5698   -2.8646   20.8286 O   0  0  0  0  0  0
    6.4597   -2.2796   22.8148 N   0  0  0  0  0  0
    6.0584   -3.3895   23.5833 C   0  0  0  0  0  0
    4.7314   -3.8387   23.5630 C   0  0  0  0  0  0
    4.2535   -4.8285   24.3523 N   0  0  0  0  0  0
    5.1125   -5.3972   25.2272 C   0  0  0  0  0  0
    6.4739   -5.0440   25.3589 C   0  0  0  0  0  0
    7.3344   -5.6512   26.3085 C   0  0  0  0  0  0
    8.6699   -5.2636   26.3801 C   0  0  0  0  0  0
    9.1801   -4.3130   25.5058 C   0  0  0  0  0  0
    8.3560   -3.6959   24.5695 C   0  0  0  0  0  0
    6.9733   -4.0233   24.4886 C   0  0  0  0  0  0
    6.5410   -0.7487   19.3004 C   0  0  0  0  0  0
    6.3935    0.6263   18.6415 C   0  0  0  0  0  0
    5.3097    1.3194   19.2342 O   0  0  0  0  0  0
    5.4090    1.4718   20.5983 C   0  0  0  0  0  0
    4.8217    2.6395   21.0836 C   0  0  0  0  0  0
    4.8252    2.9046   22.4476 C   0  0  0  0  0  0
    5.4083    1.9961   23.3248 C   0  0  0  0  0  0
    5.3996    2.3114   25.0206 Cl  0  0  0  0  0  0
    5.9950    0.8298   22.8320 C   0  0  0  0  0  0
    6.0171    0.5214   21.4565 C   0  0  0  0  0  0
    9.8279    0.8270   22.5633 N   0  0  0  0  0  0
   10.6792    2.0398   22.6233 C   0  0  0  0  0  0
   12.0764    1.5664   23.0843 C   0  0  0  0  0  0
   11.9892    0.8402   24.3067 O   0  0  0  0  0  0
   11.1595   -0.3117   24.2024 C   0  0  0  0  0  0
    9.7092    0.0816   23.8357 C   0  0  1  0  0  0
    8.9674    0.8614   24.9552 C   0  0  0  0  0  0
    8.3191   -0.0166   26.0385 C   0  0  0  0  0  0
    7.5526   -0.9739   25.5206 F   0  0  0  0  0  0
    7.5686    0.6888   26.8843 F   0  0  0  0  0  0
    8.8790   -1.0501   20.2992 H   0  0  0  0  0  0
    8.6567   -1.4624   21.8946 H   0  0  0  0  0  0
    7.0550   -1.6225   23.2931 H   0  0  0  0  0  0
    4.0048   -3.3764   22.9119 H   0  0  0  0  0  0
    4.7003   -6.1697   25.8604 H   0  0  0  0  0  0
    6.9495   -6.4129   26.9722 H   0  0  0  0  0  0
    9.3250   -5.7178   27.1079 H   0  0  0  0  0  0
   10.2284   -4.0567   25.5519 H   0  0  0  0  0  0
    8.7748   -2.9679   23.8950 H   0  0  0  0  0  0
    7.3481   -1.2529   18.7786 H   0  0  0  0  0  0
    5.6314   -1.2872   19.0290 H   0  0  0  0  0  0
    7.3155    1.1972   18.7309 H   0  0  0  0  0  0
    6.1927    0.5191   17.5742 H   0  0  0  0  0  0
    4.3753    3.3469   20.3971 H   0  0  0  0  0  0
    4.3745    3.8127   22.8192 H   0  0  0  0  0  0
    6.4547    0.1674   23.5439 H   0  0  0  0  0  0
   10.2403    2.6963   23.3753 H   0  0  0  0  0  0
   10.7649    2.5597   21.6670 H   0  0  0  0  0  0
   12.7300    2.4266   23.2315 H   0  0  0  0  0  0
   12.5521    0.9536   22.3157 H   0  0  0  0  0  0
   11.1694   -0.8533   25.1423 H   0  0  0  0  0  0
   11.5727   -0.9989   23.4604 H   0  0  0  0  0  0
    9.1702   -0.8479   23.6945 H   0  0  0  0  0  0
    8.1849    1.4716   24.5062 H   0  0  0  0  0  0
    9.6406    1.5765   25.4297 H   0  0  0  0  0  0
    9.0796   -0.5186   26.6377 H   0  0  0  0  0  0
  1  2  2  0  0  0
  2  3  1  0  0  0
  2 28  1  0  0  0
  3  4  1  0  0  0
  3 38  1  0  0  0
  3 39  1  0  0  0
  4 27  1  0  0  0
  4  5  1  0  0  0
  4 18  1  0  0  0
  5  6  2  0  0  0
  5  7  1  0  0  0
  7  8  1  0  0  0
  7 40  1  0  0  0
  8 17  2  0  0  0
  8  9  1  0  0  0
  9 10  2  0  0  0
  9 41  1  0  0  0
 10 11  1  0  0  0
 11 12  2  0  0  0
 11 42  1  0  0  0
 12 17  1  0  0  0
 12 13  1  0  0  0
 13 14  2  0  0  0
 13 43  1  0  0  0
 14 15  1  0  0  0
 14 44  1  0  0  0
 15 16  2  0  0  0
 15 45  1  0  0  0
 16 17  1  0  0  0
 16 46  1  0  0  0
 18 19  1  0  0  0
 18 47  1  0  0  0
 18 48  1  0  0  0
 19 20  1  0  0  0
 19 49  1  0  0  0
 19 50  1  0  0  0
 20 21  1  0  0  0
 21 27  2  0  0  0
 21 22  1  0  0  0
 22 23  2  0  0  0
 22 51  1  0  0  0
 23 24  1  0  0  0
 23 52  1  0  0  0
 24 25  1  0  0  0
 24 26  2  0  0  0
 26 27  1  0  0  0
 26 53  1  0  0  0
 28 33  1  0  0  0
 28 29  1  0  0  0
 29 30  1  0  0  0
 29 54  1  0  0  0
 29 55  1  0  0  0
 30 31  1  0  0  0
 30 56  1  0  0  0
 30 57  1  0  0  0
 31 32  1  0  0  0
 32 33  1  0  0  0
 32 58  1  0  0  0
 32 59  1  0  0  0
 33 34  1  0  0  0
 33 60  1  0  0  0
 34 35  1  0  0  0
 34 61  1  0  0  0
 34 62  1  0  0  0
 35 36  1  0  0  0
 35 37  1  0  0  0
 35 63  1  0  0  0
M  END
> <r_i_docking_score>
-7.04609600841511

$$$$
ligprep_5.maegz:80
                    3D
 Schrodinger Suite 2020-4.
 65 69  0  0  1  0            999 V2000
    0.7844   -4.8265   25.8577 C   0  0  0  0  0  0
    1.7453   -5.3414   24.8631 N   0  0  0  0  0  0
    1.3544   -6.4396   24.1444 C   0  0  0  0  0  0
    0.2774   -7.0259   24.2644 O   0  0  0  0  0  0
    2.3935   -6.8935   23.0883 C   0  0  0  0  0  0
    3.8516   -6.6332   23.5328 C   0  0  0  0  0  0
    4.0132   -5.1965   23.9875 C   0  0  0  0  0  0
    5.1887   -4.4800   23.7622 C   0  0  0  0  0  0
    5.3082   -3.1559   24.1904 C   0  0  0  0  0  0
    6.5344   -2.4724   24.0322 N   0  0  0  0  0  0
    6.7860   -1.9774   22.7694 C   0  0  0  0  0  0
    5.9748   -2.0193   21.8373 O   0  0  0  0  0  0
    8.0747   -1.3927   22.4940 C   0  0  0  0  0  0
    9.2968   -2.0583   22.4697 C   0  0  0  0  0  0
   10.2504   -1.1686   22.1132 O   0  0  0  0  0  0
    9.5501   -0.0261   21.9127 C   0  0  0  0  0  0
    8.2571   -0.1385   22.1051 N   0  0  0  0  0  0
    7.5032   -2.4108   25.1898 C   0  0  1  0  0  0
    7.4646   -1.0383   25.9316 C   0  0  0  0  0  0
    7.1013   -0.9553   27.1070 O   0  0  0  0  0  0
    7.8773    0.0340   25.2399 N   0  0  0  0  0  0
    8.0109    1.3598   25.8344 C   0  0  0  0  0  0
    6.7491    2.2307   25.7252 C   0  0  0  0  0  0
    6.4475    2.6810   24.3067 C   0  0  0  0  0  0
    5.6107    1.9226   23.4828 C   0  0  0  0  0  0
    5.3377    2.3489   22.1832 C   0  0  0  0  0  0
    5.8964    3.5333   21.7073 C   0  0  0  0  0  0
    6.7412    4.2874   22.5193 C   0  0  0  0  0  0
    7.2930    5.4310   22.0546 F   0  0  0  0  0  0
    7.0167    3.8612   23.8170 C   0  0  0  0  0  0
    7.3390   -3.5919   26.1550 C   0  0  0  0  0  0
    6.2456   -3.7461   27.0319 C   0  0  0  0  0  0
    6.1604   -4.8516   27.8756 C   0  0  0  0  0  0
    7.2050   -5.7660   27.8560 C   0  0  0  0  0  0
    8.2828   -5.6454   27.0404 N   0  0  0  0  0  0
    8.3327   -4.5775   26.2062 C   0  0  0  0  0  0
    4.2431   -2.5425   24.8512 C   0  0  0  0  0  0
    3.0776   -3.2628   25.1078 C   0  0  0  0  0  0
    2.9344   -4.5875   24.6531 C   0  0  0  0  0  0
    0.0163   -5.5483   26.1417 H   0  0  0  0  0  0
    1.3020   -4.5493   26.7770 H   0  0  0  0  0  0
    0.2777   -3.9414   25.4717 H   0  0  0  0  0  0
    2.2422   -7.9529   22.8794 H   0  0  0  0  0  0
    2.1685   -6.3492   22.1714 H   0  0  0  0  0  0
    4.5384   -6.8515   22.7140 H   0  0  0  0  0  0
    4.1213   -7.3072   24.3477 H   0  0  0  0  0  0
    6.0216   -4.9589   23.2671 H   0  0  0  0  0  0
    9.6153   -3.0754   22.6531 H   0  0  0  0  0  0
   10.1200    0.8362   21.5998 H   0  0  0  0  0  0
    8.5210   -2.4791   24.8104 H   0  0  0  0  0  0
    8.1559   -0.0743   24.2749 H   0  0  0  0  0  0
    8.8163    1.8473   25.2827 H   0  0  0  0  0  0
    8.3694    1.3302   26.8603 H   0  0  0  0  0  0
    6.8633    3.1130   26.3572 H   0  0  0  0  0  0
    5.8902    1.7099   26.1514 H   0  0  0  0  0  0
    5.1737    1.0007   23.8405 H   0  0  0  0  0  0
    4.6922    1.7615   21.5463 H   0  0  0  0  0  0
    5.6711    3.8740   20.7081 H   0  0  0  0  0  0
    7.6705    4.4549   24.4383 H   0  0  0  0  0  0
    5.4615   -3.0068   27.0723 H   0  0  0  0  0  0
    5.3190   -4.9802   28.5409 H   0  0  0  0  0  0
    7.1818   -6.6344   28.4986 H   0  0  0  0  0  0
    9.2062   -4.5223   25.5730 H   0  0  0  0  0  0
    4.3317   -1.5217   25.1946 H   0  0  0  0  0  0
    2.2807   -2.7574   25.6309 H   0  0  0  0  0  0
  1  2  1  0  0  0
  1 40  1  0  0  0
  1 41  1  0  0  0
  1 42  1  0  0  0
  2 39  1  0  0  0
  2  3  1  0  0  0
  3  4  2  0  0  0
  3  5  1  0  0  0
  5  6  1  0  0  0
  5 43  1  0  0  0
  5 44  1  0  0  0
  6  7  1  0  0  0
  6 45  1  0  0  0
  6 46  1  0  0  0
  7 39  2  0  0  0
  7  8  1  0  0  0
  8  9  2  0  0  0
  8 47  1  0  0  0
  9 10  1  0  0  0
  9 37  1  0  0  0
 10 11  1  0  0  0
 10 18  1  0  0  0
 11 12  2  0  0  0
 11 13  1  0  0  0
 13 17  1  0  0  0
 13 14  2  0  0  0
 14 15  1  0  0  0
 14 48  1  0  0  0
 15 16  1  0  0  0
 16 17  2  0  0  0
 16 49  1  0  0  0
 18 19  1  0  0  0
 18 31  1  0  0  0
 18 50  1  0  0  0
 19 20  2  0  0  0
 19 21  1  0  0  0
 21 22  1  0  0  0
 21 51  1  0  0  0
 22 23  1  0  0  0
 22 52  1  0  0  0
 22 53  1  0  0  0
 23 24  1  0  0  0
 23 54  1  0  0  0
 23 55  1  0  0  0
 24 30  2  0  0  0
 24 25  1  0  0  0
 25 26  2  0  0  0
 25 56  1  0  0  0
 26 27  1  0  0  0
 26 57  1  0  0  0
 27 28  2  0  0  0
 27 58  1  0  0  0
 28 29  1  0  0  0
 28 30  1  0  0  0
 30 59  1  0  0  0
 31 36  2  0  0  0
 31 32  1  0  0  0
 32 33  2  0  0  0
 32 60  1  0  0  0
 33 34  1  0  0  0
 33 61  1  0  0  0
 34 35  2  0  0  0
 34 62  1  0  0  0
 35 36  1  0  0  0
 36 63  1  0  0  0
 37 38  2  0  0  0
 37 64  1  0  0  0
 38 39  1  0  0  0
 38 65  1  0  0  0
M  END
> <r_i_docking_score>
-1.57649571151607

$$$$
ligprep_5.maegz:81
                    3D
 Schrodinger Suite 2020-4.
 66 69  0  0  1  0            999 V2000
    8.7948    6.5129   22.7008 C   0  0  0  0  0  0
    7.3390    6.4428   22.1895 C   0  0  0  0  0  0
    6.7096    7.8295   21.9468 C   0  0  0  0  0  0
    6.2948    5.4999   23.4717 S   0  0  0  0  0  0
    4.8766    5.8117   23.2547 O   0  0  0  0  0  0
    6.8830    5.6973   24.8025 O   0  0  0  0  0  0
    6.4732    3.7558   23.0961 C   0  0  0  0  0  0
    7.5187    3.2423   22.3189 C   0  0  0  0  0  0
    7.5745    1.8752   22.0486 C   0  0  0  0  0  0
    6.5740    1.0287   22.5389 C   0  0  0  0  0  0
    6.5671   -0.3514   22.2209 N   0  0  0  0  0  0
    6.1131   -0.7797   20.9841 C   0  0  0  0  0  0
    5.9696   -1.9740   20.7063 O   0  0  0  0  0  0
    5.7955    0.1753   19.9261 C   0  0  0  0  0  0
    6.0248   -0.0545   18.5721 C   0  0  0  0  0  0
    5.5701    1.0083   17.8728 O   0  0  0  0  0  0
    5.0437    1.8058   18.8304 C   0  0  0  0  0  0
    5.1354    1.3227   20.0454 N   0  0  0  0  0  0
    6.9425   -1.3845   23.2613 C   0  0  1  0  0  0
    8.2968   -2.0932   22.9345 C   0  0  0  0  0  0
    8.3866   -2.7625   21.9082 O   0  0  0  0  0  0
    9.3158   -2.0070   23.8085 N   0  0  0  0  0  0
   10.6478   -2.5519   23.5546 C   0  0  0  0  0  0
   11.4103   -1.9439   22.3522 C   0  0  0  0  0  0
   11.8306   -0.4810   22.4907 C   0  0  0  0  0  0
   13.1721   -0.1309   22.3078 C   0  0  0  0  0  0
   13.5697    1.2019   22.4052 C   0  0  0  0  0  0
   12.6427    2.1954   22.7084 C   0  0  0  0  0  0
   11.3062    1.8566   22.8935 C   0  0  0  0  0  0
   10.4044    2.8179   23.1881 F   0  0  0  0  0  0
   10.8988    0.5286   22.7646 C   0  0  0  0  0  0
    6.8428   -0.8858   24.7050 C   0  0  0  0  0  0
    5.8763   -1.4426   25.5549 C   0  0  0  0  0  0
    5.7585   -0.9980   26.8729 C   0  0  0  0  0  0
    6.6208    0.0043   27.3157 C   0  0  0  0  0  0
    7.5695    0.5591   26.5229 N   0  0  0  0  0  0
    7.6742    0.1102   25.2479 C   0  0  0  0  0  0
    5.5522    1.5481   23.3360 C   0  0  0  0  0  0
    5.5007    2.9048   23.6132 C   0  0  0  0  0  0
    9.4968    6.7468   21.9086 H   0  0  0  0  0  0
    8.9061    7.2626   23.4855 H   0  0  0  0  0  0
    9.1232    5.5652   23.1245 H   0  0  0  0  0  0
    7.2703    5.8741   21.2600 H   0  0  0  0  0  0
    7.1696    8.3554   21.1118 H   0  0  0  0  0  0
    5.6550    7.7355   21.6846 H   0  0  0  0  0  0
    6.7702    8.4641   22.8315 H   0  0  0  0  0  0
    8.2873    3.8790   21.9087 H   0  0  0  0  0  0
    8.3694    1.4831   21.4329 H   0  0  0  0  0  0
    6.4833   -0.8532   18.0044 H   0  0  0  0  0  0
    4.5983    2.7309   18.4886 H   0  0  0  0  0  0
    6.2027   -2.1828   23.1825 H   0  0  0  0  0  0
    9.1727   -1.5067   24.6743 H   0  0  0  0  0  0
   10.6448   -3.6415   23.5271 H   0  0  0  0  0  0
   11.2264   -2.3036   24.4400 H   0  0  0  0  0  0
   10.8183   -2.0587   21.4465 H   0  0  0  0  0  0
   12.2907   -2.5631   22.1711 H   0  0  0  0  0  0
   13.9092   -0.8873   22.0791 H   0  0  0  0  0  0
   14.6049    1.4701   22.2562 H   0  0  0  0  0  0
   12.9557    3.2246   22.7967 H   0  0  0  0  0  0
    9.8545    0.2980   22.8767 H   0  0  0  0  0  0
    5.2129   -2.2146   25.1949 H   0  0  0  0  0  0
    5.0142   -1.4183   27.5329 H   0  0  0  0  0  0
    6.5645    0.3812   28.3266 H   0  0  0  0  0  0
    8.4296    0.5940   24.6481 H   0  0  0  0  0  0
    4.7852    0.9015   23.7346 H   0  0  0  0  0  0
    4.6966    3.2960   24.2192 H   0  0  0  0  0  0
  1  2  1  0  0  0
  1 40  1  0  0  0
  1 41  1  0  0  0
  1 42  1  0  0  0
  2  3  1  0  0  0
  2  4  1  0  0  0
  2 43  1  0  0  0
  3 44  1  0  0  0
  3 45  1  0  0  0
  3 46  1  0  0  0
  4  5  2  0  0  0
  4  6  2  0  0  0
  4  7  1  0  0  0
  7 39  2  0  0  0
  7  8  1  0  0  0
  8  9  2  0  0  0
  8 47  1  0  0  0
  9 10  1  0  0  0
  9 48  1  0  0  0
 10 11  1  0  0  0
 10 38  2  0  0  0
 11 12  1  0  0  0
 11 19  1  0  0  0
 12 13  2  0  0  0
 12 14  1  0  0  0
 14 18  1  0  0  0
 14 15  2  0  0  0
 15 16  1  0  0  0
 15 49  1  0  0  0
 16 17  1  0  0  0
 17 18  2  0  0  0
 17 50  1  0  0  0
 19 20  1  0  0  0
 19 32  1  0  0  0
 19 51  1  0  0  0
 20 21  2  0  0  0
 20 22  1  0  0  0
 22 23  1  0  0  0
 22 52  1  0  0  0
 23 24  1  0  0  0
 23 53  1  0  0  0
 23 54  1  0  0  0
 24 25  1  0  0  0
 24 55  1  0  0  0
 24 56  1  0  0  0
 25 31  2  0  0  0
 25 26  1  0  0  0
 26 27  2  0  0  0
 26 57  1  0  0  0
 27 28  1  0  0  0
 27 58  1  0  0  0
 28 29  2  0  0  0
 28 59  1  0  0  0
 29 30  1  0  0  0
 29 31  1  0  0  0
 31 60  1  0  0  0
 32 37  2  0  0  0
 32 33  1  0  0  0
 33 34  2  0  0  0
 33 61  1  0  0  0
 34 35  1  0  0  0
 34 62  1  0  0  0
 35 36  2  0  0  0
 35 63  1  0  0  0
 36 37  1  0  0  0
 37 64  1  0  0  0
 38 39  1  0  0  0
 38 65  1  0  0  0
 39 66  1  0  0  0
M  END
> <r_i_docking_score>
-3.9834985615734

$$$$
ligprep_5.maegz:82
                    3D
 Schrodinger Suite 2020-4.
 60 64  0  0  1  0            999 V2000
   13.7275    1.7076   22.3917 C   0  0  0  0  0  0
   12.9525    0.4794   22.4372 N   0  0  0  0  0  0
   13.5697   -0.7111   22.3060 N   0  0  0  0  0  0
   12.6395   -1.6296   22.3074 C   0  0  0  0  0  0
   11.3434   -1.0538   22.4401 C   0  0  0  0  0  0
   10.0298   -1.5340   22.4781 C   0  0  0  0  0  0
    8.9881   -0.6097   22.6078 C   0  0  0  0  0  0
    7.6644   -1.0847   22.6057 N   0  0  0  0  0  0
    6.8767   -1.0488   23.7403 C   0  0  0  0  0  0
    5.6599   -1.2399   23.6949 O   0  0  0  0  0  0
    7.4638   -0.8256   25.0565 C   0  0  0  0  0  0
    6.7258   -0.4864   26.1882 C   0  0  0  0  0  0
    7.5566   -0.4591   27.2516 O   0  0  0  0  0  0
    8.7442   -0.8301   26.7225 C   0  0  0  0  0  0
    8.7154   -1.0628   25.4345 N   0  0  0  0  0  0
    7.1237   -1.4297   21.2485 C   0  0  1  0  0  0
    6.3369   -2.7709   21.1423 C   0  0  0  0  0  0
    5.5696   -2.9673   20.2058 O   0  0  0  0  0  0
    6.5358   -3.6916   22.0938 N   0  0  0  0  0  0
    5.7114   -4.8800   22.2695 C   0  0  0  0  0  0
    6.3414   -5.8697   23.2581 C   0  0  0  0  0  0
    6.8642   -5.2534   24.5542 C   0  0  0  0  0  0
    8.1742   -4.7748   24.6093 C   0  0  0  0  0  0
    8.7230   -4.3508   25.8164 C   0  0  0  0  0  0
    7.9480   -4.3798   26.9729 C   0  0  0  0  0  0
    6.6278   -4.8258   26.9234 C   0  0  0  0  0  0
    5.8815   -4.8524   28.0501 F   0  0  0  0  0  0
    6.0842   -5.2598   25.7144 C   0  0  0  0  0  0
    6.4794   -0.2716   20.4834 C   0  0  0  0  0  0
    5.9682    0.8796   21.1055 C   0  0  0  0  0  0
    5.3322    1.8668   20.3491 C   0  0  0  0  0  0
    5.2270    1.6869   18.9713 C   0  0  0  0  0  0
    5.7511    0.6142   18.3309 N   0  0  0  0  0  0
    6.3690   -0.3318   19.0836 C   0  0  0  0  0  0
    9.2441    0.7642   22.6822 C   0  0  0  0  0  0
   10.5428    1.2720   22.6584 C   0  0  0  0  0  0
   11.5803    0.3409   22.5334 C   0  0  0  0  0  0
   13.4094    2.3062   21.5377 H   0  0  0  0  0  0
   13.5633    2.2704   23.3105 H   0  0  0  0  0  0
   14.7909    1.4935   22.2932 H   0  0  0  0  0  0
   12.8852   -2.6762   22.2011 H   0  0  0  0  0  0
    9.8309   -2.5926   22.3920 H   0  0  0  0  0  0
    5.6849   -0.2588   26.3680 H   0  0  0  0  0  0
    9.5780   -0.8584   27.4081 H   0  0  0  0  0  0
    8.0214   -1.6317   20.6622 H   0  0  0  0  0  0
    7.1689   -3.4698   22.8483 H   0  0  0  0  0  0
    5.5396   -5.3690   21.3080 H   0  0  0  0  0  0
    4.7670   -4.5166   22.6807 H   0  0  0  0  0  0
    7.1713   -6.3811   22.7667 H   0  0  0  0  0  0
    5.6298   -6.6658   23.4828 H   0  0  0  0  0  0
    8.7694   -4.7576   23.7118 H   0  0  0  0  0  0
    9.7455   -4.0067   25.8552 H   0  0  0  0  0  0
    8.3723   -4.0557   27.9078 H   0  0  0  0  0  0
    5.0713   -5.6330   25.6926 H   0  0  0  0  0  0
    6.0136    1.0086   22.1747 H   0  0  0  0  0  0
    4.9186    2.7469   20.8197 H   0  0  0  0  0  0
    4.7409    2.4286   18.3506 H   0  0  0  0  0  0
    6.7561   -1.1787   18.5344 H   0  0  0  0  0  0
    8.4183    1.4567   22.7629 H   0  0  0  0  0  0
   10.7281    2.3351   22.7129 H   0  0  0  0  0  0
  1  2  1  0  0  0
  1 38  1  0  0  0
  1 39  1  0  0  0
  1 40  1  0  0  0
  2 37  1  0  0  0
  2  3  1  0  0  0
  3  4  2  0  0  0
  4  5  1  0  0  0
  4 41  1  0  0  0
  5 37  2  0  0  0
  5  6  1  0  0  0
  6  7  2  0  0  0
  6 42  1  0  0  0
  7  8  1  0  0  0
  7 35  1  0  0  0
  8  9  1  0  0  0
  8 16  1  0  0  0
  9 10  2  0  0  0
  9 11  1  0  0  0
 11 15  1  0  0  0
 11 12  2  0  0  0
 12 13  1  0  0  0
 12 43  1  0  0  0
 13 14  1  0  0  0
 14 15  2  0  0  0
 14 44  1  0  0  0
 16 17  1  0  0  0
 16 29  1  0  0  0
 16 45  1  0  0  0
 17 18  2  0  0  0
 17 19  1  0  0  0
 19 20  1  0  0  0
 19 46  1  0  0  0
 20 21  1  0  0  0
 20 47  1  0  0  0
 20 48  1  0  0  0
 21 22  1  0  0  0
 21 49  1  0  0  0
 21 50  1  0  0  0
 22 28  2  0  0  0
 22 23  1  0  0  0
 23 24  2  0  0  0
 23 51  1  0  0  0
 24 25  1  0  0  0
 24 52  1  0  0  0
 25 26  2  0  0  0
 25 53  1  0  0  0
 26 27  1  0  0  0
 26 28  1  0  0  0
 28 54  1  0  0  0
 29 34  2  0  0  0
 29 30  1  0  0  0
 30 31  2  0  0  0
 30 55  1  0  0  0
 31 32  1  0  0  0
 31 56  1  0  0  0
 32 33  2  0  0  0
 32 57  1  0  0  0
 33 34  1  0  0  0
 34 58  1  0  0  0
 35 36  2  0  0  0
 35 59  1  0  0  0
 36 37  1  0  0  0
 36 60  1  0  0  0
M  END
> <r_i_docking_score>
-5.71343869982204

$$$$
ligprep_5.maegz:83
                    3D
 Schrodinger Suite 2020-4.
 60 63  0  0  1  0            999 V2000
    1.6521   -7.2240   22.7040 C   0  0  0  0  0  0
    2.5057   -6.9740   24.3602 S   0  0  0  0  0  0
    1.5330   -6.3912   25.2906 O   0  0  0  0  0  0
    3.2157   -8.2071   24.7083 O   0  0  0  0  0  0
    3.7347   -5.7219   24.0017 C   0  0  0  0  0  0
    3.4655   -4.3986   24.3435 C   0  0  0  0  0  0
    4.3675   -3.3998   24.0020 C   0  0  0  0  0  0
    5.5384   -3.7216   23.3157 C   0  0  0  0  0  0
    6.3934   -2.6606   22.9308 N   0  0  0  0  0  0
    6.2638   -2.2372   21.6184 C   0  0  0  0  0  0
    5.5697   -2.8599   20.7998 O   0  0  0  0  0  0
    6.9112   -1.0180   21.1258 C   0  0  0  0  0  0
    6.8417   -0.5811   19.7990 C   0  0  0  0  0  0
    7.4883    0.6003   19.6885 O   0  0  0  0  0  0
    7.9062    0.8334   20.9511 C   0  0  0  0  0  0
    7.5768   -0.0975   21.8104 N   0  0  0  0  0  0
    7.4267   -2.1655   23.9065 C   0  0  1  0  0  0
    6.9743   -0.9013   24.6879 C   0  0  0  0  0  0
    5.7909   -0.5631   24.7180 O   0  0  0  0  0  0
    7.9603   -0.2277   25.3038 N   0  0  0  0  0  0
    7.7872    0.9341   26.1728 C   0  0  0  0  0  0
    8.2724    2.2607   25.5453 C   0  0  0  0  0  0
    7.4925    2.8029   24.3459 C   0  0  0  0  0  0
    8.1659    3.5695   23.3845 C   0  0  0  0  0  0
    7.4746    4.1238   22.3056 C   0  0  0  0  0  0
    6.1029    3.9129   22.1769 C   0  0  0  0  0  0
    5.4198    3.1588   23.1289 C   0  0  0  0  0  0
    4.0865    2.9700   23.0169 F   0  0  0  0  0  0
    6.1098    2.6103   24.2090 C   0  0  0  0  0  0
    7.8770   -3.2406   24.8937 C   0  0  0  0  0  0
    7.1150   -3.6258   26.0135 C   0  0  0  0  0  0
    7.5683   -4.6410   26.8555 C   0  0  0  0  0  0
    8.7935   -5.2378   26.5703 C   0  0  0  0  0  0
    9.5679   -4.8667   25.5206 N   0  0  0  0  0  0
    9.1040   -3.8848   24.7068 C   0  0  0  0  0  0
    5.8376   -5.0568   23.0144 C   0  0  0  0  0  0
    4.9302   -6.0569   23.3585 C   0  0  0  0  0  0
    0.8449   -7.9404   22.8436 H   0  0  0  0  0  0
    2.3748   -7.6099   21.9874 H   0  0  0  0  0  0
    1.2538   -6.2676   22.3680 H   0  0  0  0  0  0
    2.5488   -4.1331   24.8504 H   0  0  0  0  0  0
    4.1312   -2.3723   24.2373 H   0  0  0  0  0  0
    6.3951   -0.9787   18.8990 H   0  0  0  0  0  0
    8.4431    1.7539   21.1191 H   0  0  0  0  0  0
    8.2938   -1.8655   23.3198 H   0  0  0  0  0  0
    8.8992   -0.5914   25.2331 H   0  0  0  0  0  0
    6.7365    1.0249   26.4538 H   0  0  0  0  0  0
    8.3039    0.7465   27.1085 H   0  0  0  0  0  0
    8.2635    3.0354   26.3114 H   0  0  0  0  0  0
    9.3188    2.1363   25.2633 H   0  0  0  0  0  0
    9.2289    3.7465   23.4732 H   0  0  0  0  0  0
    7.9947    4.7124   21.5612 H   0  0  0  0  0  0
    5.5657    4.3403   21.3425 H   0  0  0  0  0  0
    5.5460    2.0473   24.9345 H   0  0  0  0  0  0
    6.1625   -3.1583   26.2170 H   0  0  0  0  0  0
    6.9801   -4.9633   27.7021 H   0  0  0  0  0  0
    9.1688   -6.0381   27.1890 H   0  0  0  0  0  0
    9.7366   -3.6332   23.8672 H   0  0  0  0  0  0
    6.7518   -5.3091   22.4969 H   0  0  0  0  0  0
    5.1456   -7.0856   23.1080 H   0  0  0  0  0  0
  1  2  1  0  0  0
  1 38  1  0  0  0
  1 39  1  0  0  0
  1 40  1  0  0  0
  2  3  2  0  0  0
  2  4  2  0  0  0
  2  5  1  0  0  0
  5 37  2  0  0  0
  5  6  1  0  0  0
  6  7  2  0  0  0
  6 41  1  0  0  0
  7  8  1  0  0  0
  7 42  1  0  0  0
  8  9  1  0  0  0
  8 36  2  0  0  0
  9 10  1  0  0  0
  9 17  1  0  0  0
 10 11  2  0  0  0
 10 12  1  0  0  0
 12 16  1  0  0  0
 12 13  2  0  0  0
 13 14  1  0  0  0
 13 43  1  0  0  0
 14 15  1  0  0  0
 15 16  2  0  0  0
 15 44  1  0  0  0
 17 18  1  0  0  0
 17 30  1  0  0  0
 17 45  1  0  0  0
 18 19  2  0  0  0
 18 20  1  0  0  0
 20 21  1  0  0  0
 20 46  1  0  0  0
 21 22  1  0  0  0
 21 47  1  0  0  0
 21 48  1  0  0  0
 22 23  1  0  0  0
 22 49  1  0  0  0
 22 50  1  0  0  0
 23 29  2  0  0  0
 23 24  1  0  0  0
 24 25  2  0  0  0
 24 51  1  0  0  0
 25 26  1  0  0  0
 25 52  1  0  0  0
 26 27  2  0  0  0
 26 53  1  0  0  0
 27 28  1  0  0  0
 27 29  1  0  0  0
 29 54  1  0  0  0
 30 35  2  0  0  0
 30 31  1  0  0  0
 31 32  2  0  0  0
 31 55  1  0  0  0
 32 33  1  0  0  0
 32 56  1  0  0  0
 33 34  2  0  0  0
 33 57  1  0  0  0
 34 35  1  0  0  0
 35 58  1  0  0  0
 36 37  1  0  0  0
 36 59  1  0  0  0
 37 60  1  0  0  0
M  END
> <r_i_docking_score>
-3.60245360710646

$$$$
ligprep_5.maegz:84
                    3D
 Schrodinger Suite 2020-4.
 63 66  0  0  1  0            999 V2000
    5.3618   -6.4526   22.5078 C   0  0  0  0  0  0
    5.7866   -4.6836   22.9334 S   0  0  0  0  0  0
    5.4733   -4.4737   24.3518 O   0  0  0  0  0  0
    5.1696   -3.8347   21.9083 O   0  0  0  0  0  0
    7.6558   -4.6072   22.7213 C   0  0  0  0  0  0
    8.1845   -3.1967   22.9022 C   0  0  0  0  0  0
    7.9435   -2.2535   21.9030 C   0  0  0  0  0  0
    8.4243   -0.9591   22.0267 C   0  0  0  0  0  0
    9.1409   -0.6023   23.1678 C   0  0  0  0  0  0
    9.5665    0.7341   23.3119 N   0  0  0  0  0  0
   10.8820    1.1218   23.1603 C   0  0  0  0  0  0
   11.2394    2.2812   23.3960 O   0  0  0  0  0  0
   11.9189    0.1805   22.7241 C   0  0  0  0  0  0
   13.2788    0.4859   22.7075 C   0  0  0  0  0  0
   13.9574   -0.5735   22.2138 O   0  0  0  0  0  0
   12.9773   -1.4621   21.9263 C   0  0  0  0  0  0
   11.7710   -1.0365   22.2065 N   0  0  0  0  0  0
    8.5469    1.7618   23.7202 C   0  0  1  0  0  0
    7.9707    2.5817   22.5262 C   0  0  0  0  0  0
    8.3327    2.3574   21.3703 O   0  0  0  0  0  0
    7.0748    3.5239   22.8703 N   0  0  0  0  0  0
    6.3916    4.4561   21.9729 C   0  0  0  0  0  0
    7.2263    5.7032   21.5965 C   0  0  0  0  0  0
    7.9173    6.3891   22.7661 C   0  0  0  0  0  0
    7.2361    7.3575   23.5110 C   0  0  0  0  0  0
    7.8604    7.9803   24.5933 C   0  0  0  0  0  0
    9.1699    7.6355   24.9324 C   0  0  0  0  0  0
    9.8570    6.6740   24.1897 C   0  0  0  0  0  0
   11.1277    6.3472   24.5201 F   0  0  0  0  0  0
    9.2328    6.0524   23.1085 C   0  0  0  0  0  0
    7.4763    1.1547   24.6255 C   0  0  0  0  0  0
    6.2076    0.7348   24.1829 C   0  0  0  0  0  0
    5.3275    0.1238   25.0782 C   0  0  0  0  0  0
    5.7323   -0.0502   26.4004 C   0  0  0  0  0  0
    6.9479    0.3415   26.8547 N   0  0  0  0  0  0
    7.7923    0.9281   25.9671 C   0  0  0  0  0  0
    9.3894   -1.5397   24.1782 C   0  0  0  0  0  0
    8.9093   -2.8415   24.0429 C   0  0  0  0  0  0
    4.3025   -6.6099   22.7063 H   0  0  0  0  0  0
    5.5713   -6.6189   21.4535 H   0  0  0  0  0  0
    5.9620   -7.1293   23.1090 H   0  0  0  0  0  0
    7.8849   -4.9721   21.7187 H   0  0  0  0  0  0
    8.1015   -5.3023   23.4331 H   0  0  0  0  0  0
    7.3700   -2.5170   21.0280 H   0  0  0  0  0  0
    8.2278   -0.2384   21.2471 H   0  0  0  0  0  0
   13.8568    1.3536   22.9897 H   0  0  0  0  0  0
   13.2832   -2.4025   21.4972 H   0  0  0  0  0  0
    9.0530    2.5295   24.3131 H   0  0  0  0  0  0
    6.8518    3.6157   23.8501 H   0  0  0  0  0  0
    5.5326    4.7854   22.5564 H   0  0  0  0  0  0
    6.0186    3.9404   21.0876 H   0  0  0  0  0  0
    6.5850    6.4269   21.0925 H   0  0  0  0  0  0
    7.9699    5.4429   20.8473 H   0  0  0  0  0  0
    6.2223    7.6287   23.2533 H   0  0  0  0  0  0
    7.3330    8.7286   25.1669 H   0  0  0  0  0  0
    9.6586    8.1136   25.7671 H   0  0  0  0  0  0
    9.7653    5.3052   22.5424 H   0  0  0  0  0  0
    5.9102    0.8461   23.1518 H   0  0  0  0  0  0
    4.3591   -0.2174   24.7424 H   0  0  0  0  0  0
    5.0833   -0.5219   27.1215 H   0  0  0  0  0  0
    8.7690    1.1978   26.3355 H   0  0  0  0  0  0
    9.9336   -1.2550   25.0654 H   0  0  0  0  0  0
    9.0976   -3.5673   24.8206 H   0  0  0  0  0  0
  1  2  1  0  0  0
  1 39  1  0  0  0
  1 40  1  0  0  0
  1 41  1  0  0  0
  2  3  2  0  0  0
  2  4  2  0  0  0
  2  5  1  0  0  0
  5  6  1  0  0  0
  5 42  1  0  0  0
  5 43  1  0  0  0
  6 38  2  0  0  0
  6  7  1  0  0  0
  7  8  2  0  0  0
  7 44  1  0  0  0
  8  9  1  0  0  0
  8 45  1  0  0  0
  9 10  1  0  0  0
  9 37  2  0  0  0
 10 11  1  0  0  0
 10 18  1  0  0  0
 11 12  2  0  0  0
 11 13  1  0  0  0
 13 17  1  0  0  0
 13 14  2  0  0  0
 14 15  1  0  0  0
 14 46  1  0  0  0
 15 16  1  0  0  0
 16 17  2  0  0  0
 16 47  1  0  0  0
 18 19  1  0  0  0
 18 31  1  0  0  0
 18 48  1  0  0  0
 19 20  2  0  0  0
 19 21  1  0  0  0
 21 22  1  0  0  0
 21 49  1  0  0  0
 22 23  1  0  0  0
 22 50  1  0  0  0
 22 51  1  0  0  0
 23 24  1  0  0  0
 23 52  1  0  0  0
 23 53  1  0  0  0
 24 30  2  0  0  0
 24 25  1  0  0  0
 25 26  2  0  0  0
 25 54  1  0  0  0
 26 27  1  0  0  0
 26 55  1  0  0  0
 27 28  2  0  0  0
 27 56  1  0  0  0
 28 29  1  0  0  0
 28 30  1  0  0  0
 30 57  1  0  0  0
 31 36  2  0  0  0
 31 32  1  0  0  0
 32 33  2  0  0  0
 32 58  1  0  0  0
 33 34  1  0  0  0
 33 59  1  0  0  0
 34 35  2  0  0  0
 34 60  1  0  0  0
 35 36  1  0  0  0
 36 61  1  0  0  0
 37 38  1  0  0  0
 37 62  1  0  0  0
 38 63  1  0  0  0
M  END
> <r_i_docking_score>
-4.29949121803148

$$$$
ligprep_5.maegz:85
                    3D
 Schrodinger Suite 2020-4.
 64 67  0  0  1  0            999 V2000
    9.8964    4.7865   24.3724 C   0  0  0  0  0  0
    9.1086    5.4926   23.2502 C   0  0  0  0  0  0
    8.9834    7.0020   23.5296 C   0  0  0  0  0  0
    7.7864    4.9657   23.1266 O   0  0  0  0  0  0
    7.5545    3.6637   22.7165 C   0  0  0  0  0  0
    8.5101    2.8175   22.1312 C   0  0  0  0  0  0
    8.1772    1.5149   21.7687 C   0  0  0  0  0  0
    6.8812    1.0416   21.9913 C   0  0  0  0  0  0
    6.5770   -0.3288   21.7375 N   0  0  0  0  0  0
    6.1124   -0.7170   20.4953 C   0  0  0  0  0  0
    5.9696   -1.8904   20.1476 O   0  0  0  0  0  0
    5.7897    0.2773   19.4994 C   0  0  0  0  0  0
    5.9699    0.0929   18.1371 C   0  0  0  0  0  0
    5.5699    1.2119   17.5079 O   0  0  0  0  0  0
    5.0730    1.9696   18.5090 C   0  0  0  0  0  0
    5.1535    1.4239   19.6915 N   0  0  0  0  0  0
    7.0322   -1.3173   22.7863 C   0  0  1  0  0  0
    6.8506   -0.7798   24.2298 C   0  0  0  0  0  0
    7.7729   -0.1552   24.7585 O   0  0  0  0  0  0
    5.6859   -1.0599   24.8384 N   0  0  0  0  0  0
    5.4051   -0.8540   26.2504 C   0  0  0  0  0  0
    6.4161   -1.5556   27.1794 C   0  0  0  0  0  0
    6.9260   -2.9224   26.7083 C   0  0  0  0  0  0
    8.2878   -3.1057   26.4382 C   0  0  0  0  0  0
    8.7821   -4.3749   26.1415 C   0  0  0  0  0  0
    7.9145   -5.4649   26.1109 C   0  0  0  0  0  0
    6.5511   -5.2851   26.3494 C   0  0  0  0  0  0
    5.7038   -6.3402   26.3081 F   0  0  0  0  0  0
    6.0576   -4.0162   26.6477 C   0  0  0  0  0  0
    6.5525   -2.7712   22.6898 C   0  0  0  0  0  0
    7.4945   -3.8082   22.6295 C   0  0  0  0  0  0
    7.0744   -5.1398   22.5947 C   0  0  0  0  0  0
    5.7061   -5.4052   22.6440 C   0  0  0  0  0  0
    4.7672   -4.4278   22.7079 N   0  0  0  0  0  0
    5.1961   -3.1393   22.7120 C   0  0  0  0  0  0
    5.9230    1.8840   22.5668 C   0  0  0  0  0  0
    6.2602    3.1879   22.9092 C   0  0  0  0  0  0
   10.8723    5.2511   24.5194 H   0  0  0  0  0  0
    9.3554    4.8346   25.3176 H   0  0  0  0  0  0
   10.0738    3.7352   24.1487 H   0  0  0  0  0  0
    9.6403    5.3835   22.3083 H   0  0  0  0  0  0
    9.9664    7.4592   23.6520 H   0  0  0  0  0  0
    8.4751    7.5436   22.7295 H   0  0  0  0  0  0
    8.4209    7.1799   24.4469 H   0  0  0  0  0  0
    9.5187    3.1546   21.9538 H   0  0  0  0  0  0
    8.9326    0.8655   21.3480 H   0  0  0  0  0  0
    6.3693   -0.6958   17.5160 H   0  0  0  0  0  0
    4.6509    2.9220   18.2175 H   0  0  0  0  0  0
    8.1108   -1.3682   22.6235 H   0  0  0  0  0  0
    4.9831   -1.5529   24.3077 H   0  0  0  0  0  0
    4.4035   -1.2522   26.4215 H   0  0  0  0  0  0
    5.3949    0.2235   26.4337 H   0  0  0  0  0  0
    5.9680   -1.6520   28.1687 H   0  0  0  0  0  0
    7.2716   -0.8922   27.3218 H   0  0  0  0  0  0
    8.9661   -2.2654   26.4779 H   0  0  0  0  0  0
    9.8359   -4.5161   25.9509 H   0  0  0  0  0  0
    8.3002   -6.4521   25.9072 H   0  0  0  0  0  0
    5.0067   -3.8939   26.8597 H   0  0  0  0  0  0
    8.5525   -3.5886   22.6080 H   0  0  0  0  0  0
    7.7949   -5.9435   22.5444 H   0  0  0  0  0  0
    5.3402   -6.4227   22.6295 H   0  0  0  0  0  0
    4.4208   -2.3901   22.7355 H   0  0  0  0  0  0
    4.9142    1.5437   22.7474 H   0  0  0  0  0  0
    5.5153    3.8334   23.3509 H   0  0  0  0  0  0
  1  2  1  0  0  0
  1 38  1  0  0  0
  1 39  1  0  0  0
  1 40  1  0  0  0
  2  3  1  0  0  0
  2  4  1  0  0  0
  2 41  1  0  0  0
  3 42  1  0  0  0
  3 43  1  0  0  0
  3 44  1  0  0  0
  4  5  1  0  0  0
  5 37  2  0  0  0
  5  6  1  0  0  0
  6  7  2  0  0  0
  6 45  1  0  0  0
  7  8  1  0  0  0
  7 46  1  0  0  0
  8  9  1  0  0  0
  8 36  2  0  0  0
  9 10  1  0  0  0
  9 17  1  0  0  0
 10 11  2  0  0  0
 10 12  1  0  0  0
 12 16  1  0  0  0
 12 13  2  0  0  0
 13 14  1  0  0  0
 13 47  1  0  0  0
 14 15  1  0  0  0
 15 16  2  0  0  0
 15 48  1  0  0  0
 17 18  1  0  0  0
 17 30  1  0  0  0
 17 49  1  0  0  0
 18 19  2  0  0  0
 18 20  1  0  0  0
 20 21  1  0  0  0
 20 50  1  0  0  0
 21 22  1  0  0  0
 21 51  1  0  0  0
 21 52  1  0  0  0
 22 23  1  0  0  0
 22 53  1  0  0  0
 22 54  1  0  0  0
 23 29  2  0  0  0
 23 24  1  0  0  0
 24 25  2  0  0  0
 24 55  1  0  0  0
 25 26  1  0  0  0
 25 56  1  0  0  0
 26 27  2  0  0  0
 26 57  1  0  0  0
 27 28  1  0  0  0
 27 29  1  0  0  0
 29 58  1  0  0  0
 30 35  2  0  0  0
 30 31  1  0  0  0
 31 32  2  0  0  0
 31 59  1  0  0  0
 32 33  1  0  0  0
 32 60  1  0  0  0
 33 34  2  0  0  0
 33 61  1  0  0  0
 34 35  1  0  0  0
 35 62  1  0  0  0
 36 37  1  0  0  0
 36 63  1  0  0  0
 37 64  1  0  0  0
M  END
> <r_i_docking_score>
-2.64962669837443

$$$$
ligprep_5.maegz:86
                    3D
 Schrodinger Suite 2020-4.
 64 68  0  0  1  0            999 V2000
    7.5689    0.4379   19.6255 O   0  0  0  0  0  0
    6.6396    0.2096   20.4020 C   0  0  0  0  0  0
    5.3520    0.4548   20.1098 N   0  0  0  0  0  0
    4.9309    1.1674   18.9031 C   0  0  0  0  0  0
    4.6724    2.6634   19.1426 C   0  0  0  0  0  0
    3.4894    2.9488   20.0597 C   0  0  0  0  0  0
    2.2472    3.2839   19.5097 C   0  0  0  0  0  0
    1.1577    3.5452   20.3404 C   0  0  0  0  0  0
    1.3055    3.4732   21.7263 C   0  0  0  0  0  0
    2.5443    3.1476   22.2802 C   0  0  0  0  0  0
    2.6804    3.0676   23.6241 F   0  0  0  0  0  0
    3.6350    2.8923   21.4503 C   0  0  0  0  0  0
    6.9203   -0.3184   21.8374 C   0  0  1  0  0  0
    6.3722   -1.6992   22.1779 C   0  0  0  0  0  0
    6.2411   -2.0736   23.5221 C   0  0  0  0  0  0
    5.7785   -3.3483   23.8524 C   0  0  0  0  0  0
    5.4594   -4.2292   22.8190 C   0  0  0  0  0  0
    5.5698   -3.8967   21.5096 N   0  0  0  0  0  0
    6.0104   -2.6486   21.2088 C   0  0  0  0  0  0
    8.3237   -0.0758   22.3188 N   0  0  0  0  0  0
    9.3531   -0.9557   22.0299 C   0  0  0  0  0  0
    9.1352   -2.0497   21.5080 O   0  0  0  0  0  0
   10.7550   -0.6506   22.3430 C   0  0  0  0  0  0
   11.7849   -1.5918   22.2858 C   0  0  0  0  0  0
   12.9643   -0.9695   22.5067 O   0  0  0  0  0  0
   12.5963    0.3166   22.7071 C   0  0  0  0  0  0
   11.3095    0.5330   22.5865 N   0  0  0  0  0  0
    8.5534    1.1863   22.9047 C   0  0  0  0  0  0
    8.7999    1.2697   24.2781 C   0  0  0  0  0  0
    9.0574    2.5096   24.8559 C   0  0  0  0  0  0
    9.0582    3.6663   24.0737 C   0  0  0  0  0  0
    9.3865    5.0189   24.6985 C   0  0  0  0  0  0
    8.3566    6.0276   24.4916 N   0  0  0  0  0  0
    8.2526    6.9105   23.4457 C   0  0  0  0  0  0
    7.0544    7.5710   23.6427 C   0  0  0  0  0  0
    6.5189    7.0018   24.8032 C   0  0  0  0  0  0
    7.2869    6.0598   25.3035 N   0  0  0  0  0  0
    8.7834    3.5797   22.7080 C   0  0  0  0  0  0
    8.5366    2.3449   22.1235 C   0  0  0  0  0  0
    4.6377    0.2470   20.7987 H   0  0  0  0  0  0
    3.9699    0.7472   18.6214 H   0  0  0  0  0  0
    5.5672    0.9985   18.0311 H   0  0  0  0  0  0
    4.5064    3.1467   18.1782 H   0  0  0  0  0  0
    5.5672    3.1472   19.5364 H   0  0  0  0  0  0
    2.1316    3.3437   18.4351 H   0  0  0  0  0  0
    0.2011    3.8067   19.9096 H   0  0  0  0  0  0
    0.4660    3.6722   22.3762 H   0  0  0  0  0  0
    4.5904    2.6406   21.8893 H   0  0  0  0  0  0
    6.3173    0.3862   22.4148 H   0  0  0  0  0  0
    6.5046   -1.3797   24.3075 H   0  0  0  0  0  0
    5.6825   -3.6476   24.8850 H   0  0  0  0  0  0
    5.1111   -5.2295   23.0346 H   0  0  0  0  0  0
    6.1111   -2.4359   20.1542 H   0  0  0  0  0  0
   11.8175   -2.6510   22.0660 H   0  0  0  0  0  0
   13.3927    1.0220   22.8947 H   0  0  0  0  0  0
    8.8064    0.3810   24.8908 H   0  0  0  0  0  0
    9.2610    2.5658   25.9114 H   0  0  0  0  0  0
    9.5552    4.9208   25.7725 H   0  0  0  0  0  0
   10.3215    5.3921   24.2776 H   0  0  0  0  0  0
    9.0098    6.9727   22.6761 H   0  0  0  0  0  0
    6.6187    8.3427   23.0222 H   0  0  0  0  0  0
    5.5749    7.2626   25.2578 H   0  0  0  0  0  0
    8.7699    4.4655   22.0891 H   0  0  0  0  0  0
    8.3478    2.3099   21.0635 H   0  0  0  0  0  0
  1  2  2  0  0  0
  2  3  1  0  0  0
  2 13  1  0  0  0
  3  4  1  0  0  0
  3 40  1  0  0  0
  4  5  1  0  0  0
  4 41  1  0  0  0
  4 42  1  0  0  0
  5  6  1  0  0  0
  5 43  1  0  0  0
  5 44  1  0  0  0
  6 12  2  0  0  0
  6  7  1  0  0  0
  7  8  2  0  0  0
  7 45  1  0  0  0
  8  9  1  0  0  0
  8 46  1  0  0  0
  9 10  2  0  0  0
  9 47  1  0  0  0
 10 11  1  0  0  0
 10 12  1  0  0  0
 12 48  1  0  0  0
 13 14  1  0  0  0
 13 20  1  0  0  0
 13 49  1  0  0  0
 14 19  2  0  0  0
 14 15  1  0  0  0
 15 16  2  0  0  0
 15 50  1  0  0  0
 16 17  1  0  0  0
 16 51  1  0  0  0
 17 18  2  0  0  0
 17 52  1  0  0  0
 18 19  1  0  0  0
 19 53  1  0  0  0
 20 21  1  0  0  0
 20 28  1  0  0  0
 21 22  2  0  0  0
 21 23  1  0  0  0
 23 27  1  0  0  0
 23 24  2  0  0  0
 24 25  1  0  0  0
 24 54  1  0  0  0
 25 26  1  0  0  0
 26 27  2  0  0  0
 26 55  1  0  0  0
 28 39  2  0  0  0
 28 29  1  0  0  0
 29 30  2  0  0  0
 29 56  1  0  0  0
 30 31  1  0  0  0
 30 57  1  0  0  0
 31 32  1  0  0  0
 31 38  2  0  0  0
 32 33  1  0  0  0
 32 58  1  0  0  0
 32 59  1  0  0  0
 33 37  1  0  0  0
 33 34  1  0  0  0
 34 35  2  0  0  0
 34 60  1  0  0  0
 35 36  1  0  0  0
 35 61  1  0  0  0
 36 37  2  0  0  0
 36 62  1  0  0  0
 38 39  1  0  0  0
 38 63  1  0  0  0
 39 64  1  0  0  0
M  END
> <r_i_docking_score>
-3.64054035725019

$$$$
ligprep_5.maegz:87
                    3D
 Schrodinger Suite 2020-4.
 60 64  0  0  1  0            999 V2000
    5.8331   -1.2307   24.5885 O   0  0  0  0  0  0
    6.8778   -0.6615   24.2666 C   0  0  0  0  0  0
    7.2749    0.4836   24.8366 N   0  0  0  0  0  0
    6.4628    1.2310   25.7931 C   0  0  0  0  0  0
    7.1805    2.4935   26.2998 C   0  0  0  0  0  0
    7.7234    3.3863   25.1912 C   0  0  0  0  0  0
    9.0402    3.2328   24.7330 C   0  0  0  0  0  0
    9.5192    4.0361   23.6977 C   0  0  0  0  0  0
    8.6891    4.9947   23.1177 C   0  0  0  0  0  0
    7.3765    5.1482   23.5656 C   0  0  0  0  0  0
    6.5707    6.0710   22.9963 F   0  0  0  0  0  0
    6.8942    4.3461   24.6004 C   0  0  0  0  0  0
    7.7944   -1.2241   23.1389 C   0  0  1  0  0  0
    7.2829   -2.5617   22.6150 C   0  0  0  0  0  0
    7.9698   -3.7429   22.9286 C   0  0  0  0  0  0
    7.4705   -4.9806   22.5172 C   0  0  0  0  0  0
    6.2732   -5.0095   21.8055 C   0  0  0  0  0  0
    5.5703   -3.8888   21.5095 N   0  0  0  0  0  0
    6.0677   -2.6963   21.9243 C   0  0  0  0  0  0
    8.0803   -0.2312   22.0356 N   0  0  0  0  0  0
    9.2921    0.4085   21.9082 C   0  0  0  0  0  0
    9.4055    1.5452   21.4294 O   0  0  0  0  0  0
   10.5161   -0.2646   22.3053 C   0  0  0  0  0  0
   10.7813   -1.6348   22.3030 C   0  0  0  0  0  0
   12.0951   -1.8208   22.5686 O   0  0  0  0  0  0
   12.5610   -0.5574   22.7071 C   0  0  0  0  0  0
   11.6564    0.3755   22.5437 N   0  0  0  0  0  0
    7.0085    0.3521   21.3114 C   0  0  0  0  0  0
    6.6728   -0.1956   20.0642 C   0  0  0  0  0  0
    5.6073    0.3014   19.3129 C   0  0  0  0  0  0
    4.8759    1.3737   19.8385 C   0  0  0  0  0  0
    3.7691    1.9906   19.3276 N   0  0  0  0  0  0
    3.4685    2.9279   20.1927 C   0  0  0  0  0  0
    2.2424    3.8229   20.0917 C   0  0  0  0  0  0
    1.1566    3.1770   20.5250 F   0  0  0  0  0  0
    2.0032    4.2041   18.8356 F   0  0  0  0  0  0
    2.3689    4.9260   20.8341 F   0  0  0  0  0  0
    4.3406    2.9594   21.2594 N   0  0  0  0  0  0
    5.2544    1.9485   21.0741 C   0  0  0  0  0  0
    6.3282    1.4706   21.8241 C   0  0  0  0  0  0
    8.1347    0.9138   24.5300 H   0  0  0  0  0  0
    5.5695    1.5368   25.2429 H   0  0  0  0  0  0
    6.1670    0.5897   26.6274 H   0  0  0  0  0  0
    6.5093    3.0722   26.9371 H   0  0  0  0  0  0
    7.9927    2.1973   26.9618 H   0  0  0  0  0  0
    9.6892    2.4904   25.1739 H   0  0  0  0  0  0
   10.5278    3.9104   23.3325 H   0  0  0  0  0  0
    9.0554    5.6024   22.3012 H   0  0  0  0  0  0
    5.8731    4.4728   24.9322 H   0  0  0  0  0  0
    8.7087   -1.4077   23.7010 H   0  0  0  0  0  0
    8.8845   -3.7116   23.5003 H   0  0  0  0  0  0
    7.9992   -5.8948   22.7474 H   0  0  0  0  0  0
    5.8535   -5.9473   21.4714 H   0  0  0  0  0  0
    5.4390   -1.8372   21.7361 H   0  0  0  0  0  0
   10.2110   -2.5187   22.0595 H   0  0  0  0  0  0
   13.6208   -0.4524   22.8868 H   0  0  0  0  0  0
    7.2346   -1.0353   19.6811 H   0  0  0  0  0  0
    5.3333   -0.1456   18.3668 H   0  0  0  0  0  0
    4.2747    3.6308   22.0103 H   0  0  0  0  0  0
    6.6074    1.9310   22.7589 H   0  0  0  0  0  0
  1  2  2  0  0  0
  2  3  1  0  0  0
  2 13  1  0  0  0
  3  4  1  0  0  0
  3 41  1  0  0  0
  4  5  1  0  0  0
  4 42  1  0  0  0
  4 43  1  0  0  0
  5  6  1  0  0  0
  5 44  1  0  0  0
  5 45  1  0  0  0
  6 12  2  0  0  0
  6  7  1  0  0  0
  7  8  2  0  0  0
  7 46  1  0  0  0
  8  9  1  0  0  0
  8 47  1  0  0  0
  9 10  2  0  0  0
  9 48  1  0  0  0
 10 11  1  0  0  0
 10 12  1  0  0  0
 12 49  1  0  0  0
 13 14  1  0  0  0
 13 20  1  0  0  0
 13 50  1  0  0  0
 14 19  2  0  0  0
 14 15  1  0  0  0
 15 16  2  0  0  0
 15 51  1  0  0  0
 16 17  1  0  0  0
 16 52  1  0  0  0
 17 18  2  0  0  0
 17 53  1  0  0  0
 18 19  1  0  0  0
 19 54  1  0  0  0
 20 21  1  0  0  0
 20 28  1  0  0  0
 21 22  2  0  0  0
 21 23  1  0  0  0
 23 27  1  0  0  0
 23 24  2  0  0  0
 24 25  1  0  0  0
 24 55  1  0  0  0
 25 26  1  0  0  0
 26 27  2  0  0  0
 26 56  1  0  0  0
 28 40  2  0  0  0
 28 29  1  0  0  0
 29 30  2  0  0  0
 29 57  1  0  0  0
 30 31  1  0  0  0
 30 58  1  0  0  0
 31 39  2  0  0  0
 31 32  1  0  0  0
 32 33  2  0  0  0
 33 34  1  0  0  0
 33 38  1  0  0  0
 34 35  1  0  0  0
 34 36  1  0  0  0
 34 37  1  0  0  0
 38 39  1  0  0  0
 38 59  1  0  0  0
 39 40  1  0  0  0
 40 60  1  0  0  0
M  END
> <r_i_docking_score>
-3.70766839653994

$$$$
ligprep_5.maegz:88
                    3D
 Schrodinger Suite 2020-4.
 58 61  0  0  1  0            999 V2000
    6.8995   -5.2822   22.1090 C   0  0  0  0  0  0
    6.6581   -3.9801   21.5843 O   0  0  0  0  0  0
    7.2546   -2.8896   22.1904 C   0  0  0  0  0  0
    7.1172   -1.6639   21.5367 C   0  0  0  0  0  0
    7.6821   -0.5073   22.0668 C   0  0  0  0  0  0
    8.3831   -0.5725   23.2732 C   0  0  0  0  0  0
    8.8755    0.6185   23.8525 N   0  0  0  0  0  0
   10.2060    0.9914   23.7744 C   0  0  0  0  0  0
   10.6094    2.0315   24.3074 O   0  0  0  0  0  0
   11.2110    0.1902   23.0622 C   0  0  0  0  0  0
   12.5728    0.5027   23.0348 C   0  0  0  0  0  0
   13.2253   -0.4330   22.3081 O   0  0  0  0  0  0
   12.2294   -1.2594   21.9150 C   0  0  0  0  0  0
   11.0367   -0.8985   22.3203 N   0  0  0  0  0  0
    7.9355    1.4621   24.6790 C   0  0  1  0  0  0
    7.3084    2.6591   23.8926 C   0  0  0  0  0  0
    6.1000    2.8921   23.9534 O   0  0  0  0  0  0
    8.1443    3.4079   23.1558 N   0  0  0  0  0  0
    7.7531    4.6148   22.4236 C   0  0  0  0  0  0
    7.9908    5.9090   23.2401 C   0  0  0  0  0  0
    9.3550    6.0536   23.9249 C   0  0  0  0  0  0
   10.5395    5.6536   23.2934 C   0  0  0  0  0  0
   11.7718    5.7981   23.9318 C   0  0  0  0  0  0
   11.8303    6.3471   25.2116 C   0  0  0  0  0  0
   10.6590    6.7487   25.8506 C   0  0  0  0  0  0
   10.7165    7.2727   27.0954 F   0  0  0  0  0  0
    9.4287    6.6081   25.2080 C   0  0  0  0  0  0
    6.9039    0.6154   25.4253 C   0  0  0  0  0  0
    5.7426    0.1017   24.8192 C   0  0  0  0  0  0
    4.8573   -0.6876   25.5531 C   0  0  0  0  0  0
    5.1509   -0.9425   26.8924 C   0  0  0  0  0  0
    6.2553   -0.4533   27.5082 N   0  0  0  0  0  0
    7.1057    0.3113   26.7771 C   0  0  0  0  0  0
    8.5213   -1.7927   23.9441 C   0  0  0  0  0  0
    7.9675   -2.9481   23.3987 C   0  0  0  0  0  0
    6.4100   -6.0230   21.4763 H   0  0  0  0  0  0
    6.4934   -5.3898   23.1159 H   0  0  0  0  0  0
    7.9655   -5.5165   22.1246 H   0  0  0  0  0  0
    6.5694   -1.6126   20.6071 H   0  0  0  0  0  0
    7.5551    0.4356   21.5542 H   0  0  0  0  0  0
   13.1702    1.2927   23.4688 H   0  0  0  0  0  0
   12.5066   -2.0949   21.2888 H   0  0  0  0  0  0
    8.5170    1.9720   25.4495 H   0  0  0  0  0  0
    9.1283    3.1730   23.1591 H   0  0  0  0  0  0
    8.3696    4.6190   21.5283 H   0  0  0  0  0  0
    6.7142    4.5599   22.0875 H   0  0  0  0  0  0
    7.8238    6.7778   22.6020 H   0  0  0  0  0  0
    7.2161    5.9503   24.0076 H   0  0  0  0  0  0
   10.5127    5.2200   22.3080 H   0  0  0  0  0  0
   12.6783    5.4822   23.4361 H   0  0  0  0  0  0
   12.7792    6.4580   25.7129 H   0  0  0  0  0  0
    8.5312    6.9271   25.7167 H   0  0  0  0  0  0
    5.5287    0.3040   23.7792 H   0  0  0  0  0  0
    3.9689   -1.0900   25.0895 H   0  0  0  0  0  0
    4.4930   -1.5499   27.4964 H   0  0  0  0  0  0
    7.9699    0.6839   27.3060 H   0  0  0  0  0  0
    9.0472   -1.8416   24.8866 H   0  0  0  0  0  0
    8.0888   -3.8767   23.9340 H   0  0  0  0  0  0
  1  2  1  0  0  0
  1 36  1  0  0  0
  1 37  1  0  0  0
  1 38  1  0  0  0
  2  3  1  0  0  0
  3 35  2  0  0  0
  3  4  1  0  0  0
  4  5  2  0  0  0
  4 39  1  0  0  0
  5  6  1  0  0  0
  5 40  1  0  0  0
  6  7  1  0  0  0
  6 34  2  0  0  0
  7  8  1  0  0  0
  7 15  1  0  0  0
  8  9  2  0  0  0
  8 10  1  0  0  0
 10 14  1  0  0  0
 10 11  2  0  0  0
 11 12  1  0  0  0
 11 41  1  0  0  0
 12 13  1  0  0  0
 13 14  2  0  0  0
 13 42  1  0  0  0
 15 16  1  0  0  0
 15 28  1  0  0  0
 15 43  1  0  0  0
 16 17  2  0  0  0
 16 18  1  0  0  0
 18 19  1  0  0  0
 18 44  1  0  0  0
 19 20  1  0  0  0
 19 45  1  0  0  0
 19 46  1  0  0  0
 20 21  1  0  0  0
 20 47  1  0  0  0
 20 48  1  0  0  0
 21 27  2  0  0  0
 21 22  1  0  0  0
 22 23  2  0  0  0
 22 49  1  0  0  0
 23 24  1  0  0  0
 23 50  1  0  0  0
 24 25  2  0  0  0
 24 51  1  0  0  0
 25 26  1  0  0  0
 25 27  1  0  0  0
 27 52  1  0  0  0
 28 33  2  0  0  0
 28 29  1  0  0  0
 29 30  2  0  0  0
 29 53  1  0  0  0
 30 31  1  0  0  0
 30 54  1  0  0  0
 31 32  2  0  0  0
 31 55  1  0  0  0
 32 33  1  0  0  0
 33 56  1  0  0  0
 34 35  1  0  0  0
 34 57  1  0  0  0
 35 58  1  0  0  0
M  END
> <r_i_docking_score>
-3.26763365371109

$$$$
ligprep_5.maegz:89
                    3D
 Schrodinger Suite 2020-4.
 61 65  0  0  1  0            999 V2000
    4.1882    2.7090   19.7806 C   0  0  0  0  0  0
    5.2335    1.7056   19.6554 N   0  0  0  0  0  0
    5.5812    1.0776   18.4815 C   0  0  0  0  0  0
    6.5795    0.1580   18.7206 C   0  0  0  0  0  0
    6.8558    0.1935   20.1237 C   0  0  0  0  0  0
    7.7384   -0.5050   20.9612 C   0  0  0  0  0  0
    7.7173   -0.2550   22.3383 C   0  0  0  0  0  0
    8.5400   -1.0304   23.1902 N   0  0  0  0  0  0
    9.8833   -0.7648   23.3727 C   0  0  0  0  0  0
   10.6338   -1.5711   23.9331 O   0  0  0  0  0  0
   10.4938    0.4960   22.9427 C   0  0  0  0  0  0
   11.8580    0.7726   23.0637 C   0  0  0  0  0  0
   12.0796    2.0560   22.7055 O   0  0  0  0  0  0
   10.8451    2.4912   22.3648 C   0  0  0  0  0  0
    9.8959    1.5970   22.5010 N   0  0  0  0  0  0
    7.9448   -2.1906   23.9406 C   0  0  1  0  0  0
    7.0656   -1.7696   25.1545 C   0  0  0  0  0  0
    7.4142   -0.8241   25.8618 O   0  0  0  0  0  0
    5.9910   -2.5276   25.4267 N   0  0  0  0  0  0
    5.1308   -2.4195   26.6011 C   0  0  0  0  0  0
    3.7026   -2.9393   26.3150 C   0  0  0  0  0  0
    3.5883   -4.2738   25.5685 C   0  0  0  0  0  0
    4.5389   -5.2943   25.7143 C   0  0  0  0  0  0
    4.4281   -6.4738   24.9762 C   0  0  0  0  0  0
    3.3650   -6.6492   24.0914 C   0  0  0  0  0  0
    2.4003   -5.6528   23.9615 C   0  0  0  0  0  0
    1.3659   -5.8196   23.1073 F   0  0  0  0  0  0
    2.5055   -4.4787   24.7079 C   0  0  0  0  0  0
    7.3068   -3.2478   23.0469 C   0  0  0  0  0  0
    7.7847   -4.5631   23.0979 C   0  0  0  0  0  0
    7.1711   -5.5675   22.3483 C   0  0  0  0  0  0
    6.0720   -5.2272   21.5636 C   0  0  0  0  0  0
    5.5699   -3.9678   21.5083 N   0  0  0  0  0  0
    6.1768   -3.0065   22.2497 C   0  0  0  0  0  0
    6.8544    0.7071   22.8709 C   0  0  0  0  0  0
    5.9815    1.4450   22.0692 C   0  0  0  0  0  0
    5.9829    1.1706   20.6946 C   0  0  0  0  0  0
    3.9240    3.1075   18.7993 H   0  0  0  0  0  0
    3.3103    2.2582   20.2428 H   0  0  0  0  0  0
    4.5432    3.5323   20.4025 H   0  0  0  0  0  0
    5.0879    1.3534   17.5586 H   0  0  0  0  0  0
    7.0413   -0.4693   17.9709 H   0  0  0  0  0  0
    8.3979   -1.2554   20.5499 H   0  0  0  0  0  0
   12.7111    0.2059   23.4069 H   0  0  0  0  0  0
   10.7745    3.5159   22.0301 H   0  0  0  0  0  0
    8.7395   -2.7156   24.4710 H   0  0  0  0  0  0
    5.7934   -3.2983   24.8032 H   0  0  0  0  0  0
    5.0915   -1.3870   26.9558 H   0  0  0  0  0  0
    5.6054   -3.0405   27.3623 H   0  0  0  0  0  0
    3.2004   -2.1763   25.7164 H   0  0  0  0  0  0
    3.1395   -3.0052   27.2468 H   0  0  0  0  0  0
    5.3746   -5.1782   26.3882 H   0  0  0  0  0  0
    5.1691   -7.2505   25.0868 H   0  0  0  0  0  0
    3.2848   -7.5545   23.5076 H   0  0  0  0  0  0
    1.7469   -3.7185   24.6004 H   0  0  0  0  0  0
    8.6274   -4.8090   23.7267 H   0  0  0  0  0  0
    7.5405   -6.5823   22.3770 H   0  0  0  0  0  0
    5.5723   -5.9794   20.9721 H   0  0  0  0  0  0
    5.7193   -2.0279   22.2106 H   0  0  0  0  0  0
    6.8560    0.8915   23.9356 H   0  0  0  0  0  0
    5.3187    2.1800   22.5012 H   0  0  0  0  0  0
  1  2  1  0  0  0
  1 38  1  0  0  0
  1 39  1  0  0  0
  1 40  1  0  0  0
  2 37  1  0  0  0
  2  3  1  0  0  0
  3  4  2  0  0  0
  3 41  1  0  0  0
  4  5  1  0  0  0
  4 42  1  0  0  0
  5 37  2  0  0  0
  5  6  1  0  0  0
  6  7  2  0  0  0
  6 43  1  0  0  0
  7  8  1  0  0  0
  7 35  1  0  0  0
  8  9  1  0  0  0
  8 16  1  0  0  0
  9 10  2  0  0  0
  9 11  1  0  0  0
 11 15  1  0  0  0
 11 12  2  0  0  0
 12 13  1  0  0  0
 12 44  1  0  0  0
 13 14  1  0  0  0
 14 15  2  0  0  0
 14 45  1  0  0  0
 16 17  1  0  0  0
 16 29  1  0  0  0
 16 46  1  0  0  0
 17 18  2  0  0  0
 17 19  1  0  0  0
 19 20  1  0  0  0
 19 47  1  0  0  0
 20 21  1  0  0  0
 20 48  1  0  0  0
 20 49  1  0  0  0
 21 22  1  0  0  0
 21 50  1  0  0  0
 21 51  1  0  0  0
 22 28  2  0  0  0
 22 23  1  0  0  0
 23 24  2  0  0  0
 23 52  1  0  0  0
 24 25  1  0  0  0
 24 53  1  0  0  0
 25 26  2  0  0  0
 25 54  1  0  0  0
 26 27  1  0  0  0
 26 28  1  0  0  0
 28 55  1  0  0  0
 29 34  2  0  0  0
 29 30  1  0  0  0
 30 31  2  0  0  0
 30 56  1  0  0  0
 31 32  1  0  0  0
 31 57  1  0  0  0
 32 33  2  0  0  0
 32 58  1  0  0  0
 33 34  1  0  0  0
 34 59  1  0  0  0
 35 36  2  0  0  0
 35 60  1  0  0  0
 36 37  1  0  0  0
 36 61  1  0  0  0
M  END
> <r_i_docking_score>
-4.32123129636164

$$$$
ligprep_5.maegz:90
                    3D
 Schrodinger Suite 2020-4.
 56 60  0  0  1  0            999 V2000
    8.7695   -2.5366   25.7852 O   0  0  0  0  0  0
    8.8037   -3.4258   24.9328 C   0  0  0  0  0  0
    8.8402   -4.7442   25.2066 N   0  0  0  0  0  0
    8.8852   -5.3827   26.5208 C   0  0  0  0  0  0
    7.7745   -4.9628   27.5078 C   0  0  0  0  0  0
    6.3558   -4.8872   26.9485 C   0  0  0  0  0  0
    5.7127   -3.6512   26.8124 C   0  0  0  0  0  0
    4.4017   -3.5850   26.3388 C   0  0  0  0  0  0
    3.7295   -4.7554   25.9850 C   0  0  0  0  0  0
    4.3678   -5.9891   26.1058 C   0  0  0  0  0  0
    3.7220   -7.1222   25.7485 F   0  0  0  0  0  0
    5.6719   -6.0530   26.5955 C   0  0  0  0  0  0
    8.7259   -3.0781   23.4195 C   0  0  1  0  0  0
    7.4127   -3.6323   22.8902 C   0  0  0  0  0  0
    6.1615   -3.1258   23.2735 C   0  0  0  0  0  0
    5.0014   -3.8367   22.9706 C   0  0  0  0  0  0
    5.1257   -5.0564   22.3078 C   0  0  0  0  0  0
    6.3122   -5.5535   21.8856 N   0  0  0  0  0  0
    7.4265   -4.8415   22.1815 C   0  0  0  0  0  0
    9.1012   -1.6623   23.0545 N   0  0  0  0  0  0
   10.4361   -1.3069   23.1710 C   0  0  0  0  0  0
   11.2814   -2.1426   23.5087 O   0  0  0  0  0  0
   10.9399    0.0507   22.8988 C   0  0  0  0  0  0
   10.2624    1.2368   22.5886 C   0  0  0  0  0  0
   11.1601    2.2415   22.4717 O   0  0  0  0  0  0
   12.3401    1.6298   22.7094 C   0  0  0  0  0  0
   12.2379    0.3478   22.9574 N   0  0  0  0  0  0
    8.1696   -0.8323   22.4081 C   0  0  0  0  0  0
    7.3175   -0.0349   23.1811 C   0  0  0  0  0  0
    6.3694    0.7966   22.5845 C   0  0  0  0  0  0
    6.2669    0.8022   21.1860 C   0  0  0  0  0  0
    5.3833    1.5515   20.4741 N   0  0  0  0  0  0
    5.5155    1.3450   19.1954 C   0  0  0  0  0  0
    6.7485    0.2108   18.7079 S   0  0  0  0  0  0
    7.1274   -0.0187   20.4082 C   0  0  0  0  0  0
    8.0865   -0.8433   21.0110 C   0  0  0  0  0  0
    8.8130   -5.3770   24.4216 H   0  0  0  0  0  0
    8.7749   -6.4472   26.3080 H   0  0  0  0  0  0
    9.8736   -5.2151   26.9541 H   0  0  0  0  0  0
    7.7771   -5.6401   28.3613 H   0  0  0  0  0  0
    8.0479   -3.9910   27.9079 H   0  0  0  0  0  0
    6.2284   -2.7385   27.0747 H   0  0  0  0  0  0
    3.9121   -2.6273   26.2387 H   0  0  0  0  0  0
    2.7175   -4.7087   25.6114 H   0  0  0  0  0  0
    6.1477   -7.0140   26.7044 H   0  0  0  0  0  0
    9.5125   -3.6539   22.9361 H   0  0  0  0  0  0
    6.0863   -2.2321   23.8725 H   0  0  0  0  0  0
    4.0368   -3.4751   23.2934 H   0  0  0  0  0  0
    4.2555   -5.6621   22.1028 H   0  0  0  0  0  0
    8.3614   -5.3095   21.9084 H   0  0  0  0  0  0
    9.2362    1.5309   22.4377 H   0  0  0  0  0  0
   13.2243    2.2492   22.6640 H   0  0  0  0  0  0
    7.3985   -0.0587   24.2594 H   0  0  0  0  0  0
    5.7111    1.4080   23.1831 H   0  0  0  0  0  0
    4.9092    1.8526   18.4557 H   0  0  0  0  0  0
    8.7380   -1.4688   20.4157 H   0  0  0  0  0  0
  1  2  2  0  0  0
  2  3  1  0  0  0
  2 13  1  0  0  0
  3  4  1  0  0  0
  3 37  1  0  0  0
  4  5  1  0  0  0
  4 38  1  0  0  0
  4 39  1  0  0  0
  5  6  1  0  0  0
  5 40  1  0  0  0
  5 41  1  0  0  0
  6 12  2  0  0  0
  6  7  1  0  0  0
  7  8  2  0  0  0
  7 42  1  0  0  0
  8  9  1  0  0  0
  8 43  1  0  0  0
  9 10  2  0  0  0
  9 44  1  0  0  0
 10 11  1  0  0  0
 10 12  1  0  0  0
 12 45  1  0  0  0
 13 14  1  0  0  0
 13 20  1  0  0  0
 13 46  1  0  0  0
 14 19  2  0  0  0
 14 15  1  0  0  0
 15 16  2  0  0  0
 15 47  1  0  0  0
 16 17  1  0  0  0
 16 48  1  0  0  0
 17 18  2  0  0  0
 17 49  1  0  0  0
 18 19  1  0  0  0
 19 50  1  0  0  0
 20 21  1  0  0  0
 20 28  1  0  0  0
 21 22  2  0  0  0
 21 23  1  0  0  0
 23 27  1  0  0  0
 23 24  2  0  0  0
 24 25  1  0  0  0
 24 51  1  0  0  0
 25 26  1  0  0  0
 26 27  2  0  0  0
 26 52  1  0  0  0
 28 36  2  0  0  0
 28 29  1  0  0  0
 29 30  2  0  0  0
 29 53  1  0  0  0
 30 31  1  0  0  0
 30 54  1  0  0  0
 31 35  2  0  0  0
 31 32  1  0  0  0
 32 33  2  0  0  0
 33 34  1  0  0  0
 33 55  1  0  0  0
 34 35  1  0  0  0
 35 36  1  0  0  0
 36 56  1  0  0  0
M  END
> <r_i_docking_score>
-3.88228902437572

$$$$
ligprep_5.maegz:91
                    3D
 Schrodinger Suite 2020-4.
 57 60  0  0  1  0            999 V2000
    6.3286    1.5224   27.6064 C   0  0  0  0  0  0
    6.4757    0.9117   26.2251 C   0  0  0  0  0  0
    7.5652    1.2525   25.4235 C   0  0  0  0  0  0
    7.7099    0.6753   24.1640 C   0  0  0  0  0  0
    6.7748   -0.2617   23.7072 C   0  0  0  0  0  0
    6.9603   -0.8716   22.4374 N   0  0  0  0  0  0
    6.6059   -0.2707   21.2438 C   0  0  0  0  0  0
    6.8207   -0.8371   20.1664 O   0  0  0  0  0  0
    5.9261    1.0327   21.1708 C   0  0  0  0  0  0
    5.5702    1.9444   22.1747 C   0  0  0  0  0  0
    4.8931    2.9733   21.6212 O   0  0  0  0  0  0
    4.8755    2.6573   20.3095 C   0  0  0  0  0  0
    5.4976    1.5420   20.0169 N   0  0  0  0  0  0
    7.6865   -2.1972   22.3694 C   0  0  1  0  0  0
    8.9697   -2.2227   23.2504 C   0  0  0  0  0  0
    9.0474   -2.9718   24.2260 O   0  0  0  0  0  0
    9.9472   -1.3698   22.9016 N   0  0  0  0  0  0
   11.1808   -1.2278   23.6668 C   0  0  0  0  0  0
   11.2396    0.0715   24.5015 C   0  0  0  0  0  0
   11.6267    1.3386   23.7415 C   0  0  0  0  0  0
   12.7726    1.3663   22.9376 C   0  0  0  0  0  0
   13.1699    2.5461   22.3082 C   0  0  0  0  0  0
   12.4227    3.7113   22.4740 C   0  0  0  0  0  0
   11.2852    3.6975   23.2786 C   0  0  0  0  0  0
   10.5772    4.8333   23.4691 F   0  0  0  0  0  0
   10.8908    2.5171   23.9083 C   0  0  0  0  0  0
    6.7627   -3.4135   22.5242 C   0  0  0  0  0  0
    7.3018   -4.7130   22.5522 C   0  0  0  0  0  0
    6.4760   -5.8308   22.6727 C   0  0  0  0  0  0
    5.1021   -5.6274   22.7643 C   0  0  0  0  0  0
    4.5403   -4.3953   22.7082 N   0  0  0  0  0  0
    5.3617   -3.3254   22.5540 C   0  0  0  0  0  0
    5.6777   -0.5896   24.5139 C   0  0  0  0  0  0
    5.5321   -0.0069   25.7691 C   0  0  0  0  0  0
    7.2815    1.8953   27.9829 H   0  0  0  0  0  0
    5.6052    2.3384   27.5892 H   0  0  0  0  0  0
    5.9794    0.7741   28.3185 H   0  0  0  0  0  0
    8.2960    1.9602   25.7835 H   0  0  0  0  0  0
    8.5494    0.9459   23.5421 H   0  0  0  0  0  0
    5.6591    1.9981   23.2465 H   0  0  0  0  0  0
    4.3782    3.3617   19.6552 H   0  0  0  0  0  0
    8.0951   -2.3299   21.3666 H   0  0  0  0  0  0
    9.8452   -0.8117   22.0662 H   0  0  0  0  0  0
   11.4007   -2.0860   24.3075 H   0  0  0  0  0  0
   12.0011   -1.2613   22.9504 H   0  0  0  0  0  0
   10.3048    0.1997   25.0477 H   0  0  0  0  0  0
   11.9696   -0.0529   25.2956 H   0  0  0  0  0  0
   13.3831    0.4842   22.8143 H   0  0  0  0  0  0
   14.0605    2.5561   21.6975 H   0  0  0  0  0  0
   12.7250    4.6270   21.9874 H   0  0  0  0  0  0
   10.0246    2.5381   24.5484 H   0  0  0  0  0  0
    8.3693   -4.8628   22.4777 H   0  0  0  0  0  0
    6.8938   -6.8269   22.6979 H   0  0  0  0  0  0
    4.4262   -6.4653   22.8628 H   0  0  0  0  0  0
    4.8534   -2.3825   22.4298 H   0  0  0  0  0  0
    4.9236   -1.2870   24.1946 H   0  0  0  0  0  0
    4.6856   -0.2734   26.3857 H   0  0  0  0  0  0
  1  2  1  0  0  0
  1 35  1  0  0  0
  1 36  1  0  0  0
  1 37  1  0  0  0
  2 34  2  0  0  0
  2  3  1  0  0  0
  3  4  2  0  0  0
  3 38  1  0  0  0
  4  5  1  0  0  0
  4 39  1  0  0  0
  5  6  1  0  0  0
  5 33  2  0  0  0
  6  7  1  0  0  0
  6 14  1  0  0  0
  7  8  2  0  0  0
  7  9  1  0  0  0
  9 13  1  0  0  0
  9 10  2  0  0  0
 10 11  1  0  0  0
 10 40  1  0  0  0
 11 12  1  0  0  0
 12 13  2  0  0  0
 12 41  1  0  0  0
 14 15  1  0  0  0
 14 27  1  0  0  0
 14 42  1  0  0  0
 15 16  2  0  0  0
 15 17  1  0  0  0
 17 18  1  0  0  0
 17 43  1  0  0  0
 18 19  1  0  0  0
 18 44  1  0  0  0
 18 45  1  0  0  0
 19 20  1  0  0  0
 19 46  1  0  0  0
 19 47  1  0  0  0
 20 26  2  0  0  0
 20 21  1  0  0  0
 21 22  2  0  0  0
 21 48  1  0  0  0
 22 23  1  0  0  0
 22 49  1  0  0  0
 23 24  2  0  0  0
 23 50  1  0  0  0
 24 25  1  0  0  0
 24 26  1  0  0  0
 26 51  1  0  0  0
 27 32  2  0  0  0
 27 28  1  0  0  0
 28 29  2  0  0  0
 28 52  1  0  0  0
 29 30  1  0  0  0
 29 53  1  0  0  0
 30 31  2  0  0  0
 30 54  1  0  0  0
 31 32  1  0  0  0
 32 55  1  0  0  0
 33 34  1  0  0  0
 33 56  1  0  0  0
 34 57  1  0  0  0
M  END
> <r_i_docking_score>
-2.97440226619683

$$$$
ligprep_5.maegz:92
                    3D
 Schrodinger Suite 2020-4.
 54 57  0  0  1  0            999 V2000
    9.8327   -1.2305   23.1186 O   0  0  0  0  0  0
    9.0242   -0.4186   22.6699 C   0  0  0  0  0  0
    9.4006    0.8054   22.2592 N   0  0  0  0  0  0
   10.7702    1.3044   22.3079 C   0  0  0  0  0  0
   11.1596    1.9388   23.6561 C   0  0  0  0  0  0
   10.3192    3.1590   24.0018 C   0  0  0  0  0  0
    9.1709    3.0273   24.7898 C   0  0  0  0  0  0
    8.3913    4.1465   25.0865 C   0  0  0  0  0  0
    8.7533    5.3999   24.5895 C   0  0  0  0  0  0
    9.8944    5.5347   23.7992 C   0  0  0  0  0  0
   10.2415    6.7467   23.3132 F   0  0  0  0  0  0
   10.6773    4.4179   23.5088 C   0  0  0  0  0  0
    7.5006   -0.7657   22.5351 C   0  0  1  0  0  0
    6.9146   -0.1098   21.2919 C   0  0  0  0  0  0
    7.3426   -0.4537   20.0033 C   0  0  0  0  0  0
    6.7731    0.1670   18.8953 C   0  0  0  0  0  0
    5.8035    1.1478   19.0991 C   0  0  0  0  0  0
    5.4087    1.5373   20.3360 N   0  0  0  0  0  0
    5.9694    0.9150   21.4048 C   0  0  0  0  0  0
    7.0996   -2.2021   22.8282 N   0  0  0  0  0  0
    6.1968   -2.9439   22.0801 C   0  0  0  0  0  0
    5.5723   -2.5466   21.0982 O   0  0  0  0  0  0
    5.9465   -4.3178   22.4346 C   0  0  0  0  0  0
    6.6089   -5.4085   21.8844 C   0  0  0  0  0  0
    6.1585   -6.5176   22.5087 O   0  0  0  0  0  0
    5.2469   -6.0361   23.3904 C   0  0  0  0  0  0
    5.1163   -4.7291   23.3828 N   0  0  0  0  0  0
    7.5782   -2.7378   24.0582 C   0  0  0  0  0  0
    7.1983   -2.1249   25.2573 C   0  0  0  0  0  0
    7.6859   -2.6056   26.4679 C   0  0  0  0  0  0
    8.5399   -3.7065   26.4858 C   0  0  0  0  0  0
    8.9276   -4.3221   25.2981 C   0  0  0  0  0  0
    8.4539   -3.8308   24.0845 C   0  0  0  0  0  0
    8.6939    1.4298   21.8973 H   0  0  0  0  0  0
   11.5101    0.5758   21.9679 H   0  0  0  0  0  0
   10.7697    2.1029   21.5634 H   0  0  0  0  0  0
   11.0948    1.1953   24.4533 H   0  0  0  0  0  0
   12.2144    2.2184   23.6387 H   0  0  0  0  0  0
    8.8806    2.0573   25.1704 H   0  0  0  0  0  0
    7.5053    4.0398   25.6950 H   0  0  0  0  0  0
    8.1469    6.2666   24.8079 H   0  0  0  0  0  0
   11.5516    4.5338   22.8852 H   0  0  0  0  0  0
    7.0315   -0.2174   23.3517 H   0  0  0  0  0  0
    8.0871   -1.2245   19.8648 H   0  0  0  0  0  0
    7.0776   -0.1219   17.9079 H   0  0  0  0  0  0
    5.3339    1.6501   18.2646 H   0  0  0  0  0  0
    5.6057    1.2349   22.3702 H   0  0  0  0  0  0
    7.3745   -5.5349   21.1303 H   0  0  0  0  0  0
    4.7475   -6.7678   24.0093 H   0  0  0  0  0  0
    6.5322   -1.2746   25.2559 H   0  0  0  0  0  0
    7.3997   -2.1171   27.3864 H   0  0  0  0  0  0
    8.9160   -4.0814   27.4273 H   0  0  0  0  0  0
    9.6005   -5.1674   25.3180 H   0  0  0  0  0  0
    8.7696   -4.2913   23.1612 H   0  0  0  0  0  0
  1  2  2  0  0  0
  2  3  1  0  0  0
  2 13  1  0  0  0
  3  4  1  0  0  0
  3 34  1  0  0  0
  4  5  1  0  0  0
  4 35  1  0  0  0
  4 36  1  0  0  0
  5  6  1  0  0  0
  5 37  1  0  0  0
  5 38  1  0  0  0
  6 12  2  0  0  0
  6  7  1  0  0  0
  7  8  2  0  0  0
  7 39  1  0  0  0
  8  9  1  0  0  0
  8 40  1  0  0  0
  9 10  2  0  0  0
  9 41  1  0  0  0
 10 11  1  0  0  0
 10 12  1  0  0  0
 12 42  1  0  0  0
 13 14  1  0  0  0
 13 20  1  0  0  0
 13 43  1  0  0  0
 14 19  2  0  0  0
 14 15  1  0  0  0
 15 16  2  0  0  0
 15 44  1  0  0  0
 16 17  1  0  0  0
 16 45  1  0  0  0
 17 18  2  0  0  0
 17 46  1  0  0  0
 18 19  1  0  0  0
 19 47  1  0  0  0
 20 21  1  0  0  0
 20 28  1  0  0  0
 21 22  2  0  0  0
 21 23  1  0  0  0
 23 27  1  0  0  0
 23 24  2  0  0  0
 24 25  1  0  0  0
 24 48  1  0  0  0
 25 26  1  0  0  0
 26 27  2  0  0  0
 26 49  1  0  0  0
 28 33  2  0  0  0
 28 29  1  0  0  0
 29 30  2  0  0  0
 29 50  1  0  0  0
 30 31  1  0  0  0
 30 51  1  0  0  0
 31 32  2  0  0  0
 31 52  1  0  0  0
 32 33  1  0  0  0
 32 53  1  0  0  0
 33 54  1  0  0  0
M  END
> <r_i_docking_score>
-4.54898911039277

$$$$
ligprep_5.maegz:93
                    3D
 Schrodinger Suite 2020-4.
 68 72  0  0  1  0            999 V2000
    7.4385    3.5135   25.0561 O   0  0  0  0  0  0
    7.3128    3.4201   23.8347 C   0  0  0  0  0  0
    8.0190    4.1703   22.9685 N   0  0  0  0  0  0
    8.8435    5.3181   23.3489 C   0  0  0  0  0  0
   10.0871    5.0205   24.2169 C   0  0  0  0  0  0
   11.1636    4.1925   23.5321 C   0  0  0  0  0  0
   12.2636    4.8267   22.9454 C   0  0  0  0  0  0
   13.2658    4.0721   22.3381 C   0  0  0  0  0  0
   13.1694    2.6807   22.3084 C   0  0  0  0  0  0
   12.0774    2.0424   22.8956 C   0  0  0  0  0  0
   11.9920    0.6933   22.8755 F   0  0  0  0  0  0
   11.0763    2.7963   23.5082 C   0  0  0  0  0  0
    6.2456    2.4536   23.2435 C   0  0  1  0  0  0
    6.5339    1.9366   21.8436 C   0  0  0  0  0  0
    5.5187    1.9457   20.8773 C   0  0  0  0  0  0
    5.7292    1.3393   19.6375 C   0  0  0  0  0  0
    6.9626    0.7342   19.3963 C   0  0  0  0  0  0
    7.9698    0.7348   20.3064 N   0  0  0  0  0  0
    7.7583    1.3481   21.4951 C   0  0  0  0  0  0
    5.8441    1.3429   24.1759 N   0  0  0  0  0  0
    4.7730    1.5609   25.0221 C   0  0  0  0  0  0
    4.2020    2.6561   25.0731 O   0  0  0  0  0  0
    4.2493    0.5144   25.9110 C   0  0  0  0  0  0
    3.2781    0.7468   26.8896 C   0  0  0  0  0  0
    2.9694   -0.4240   27.4903 O   0  0  0  0  0  0
    3.7614   -1.3122   26.8496 C   0  0  0  0  0  0
    4.5041   -0.7890   25.9053 N   0  0  0  0  0  0
    6.5259    0.1027   24.1308 C   0  0  0  0  0  0
    7.5126   -0.2210   25.0633 C   0  0  0  0  0  0
    8.0756   -1.4998   25.0592 C   0  0  0  0  0  0
    7.6670   -2.4783   24.1268 C   0  0  0  0  0  0
    6.7685   -2.0945   23.1167 C   0  0  0  0  0  0
    6.1966   -0.8277   23.1451 C   0  0  0  0  0  0
    6.4299   -3.0893   22.0246 C   0  0  0  0  0  0
    6.3370   -4.5079   22.6166 C   0  0  0  0  0  0
    7.5778   -4.8816   23.4609 C   0  0  0  0  0  0
    7.9695   -6.0489   23.5055 O   0  0  0  0  0  0
    8.1492   -3.8256   24.1329 N   0  0  0  0  0  0
    9.2475   -4.1695   25.0754 C   0  0  0  0  0  0
    8.7868   -4.5619   26.4945 C   0  0  0  0  0  0
    8.1129   -3.5958   27.1080 F   0  0  0  0  0  0
    8.0291   -5.6548   26.5159 F   0  0  0  0  0  0
    7.8688    4.0321   21.9787 H   0  0  0  0  0  0
    8.2445    6.1220   23.7813 H   0  0  0  0  0  0
    9.1982    5.7190   22.3974 H   0  0  0  0  0  0
    9.7940    4.5353   25.1473 H   0  0  0  0  0  0
   10.5207    5.9652   24.5474 H   0  0  0  0  0  0
   12.3493    5.9035   22.9665 H   0  0  0  0  0  0
   14.1248    4.5650   21.9082 H   0  0  0  0  0  0
   13.9496    2.0948   21.8445 H   0  0  0  0  0  0
   10.2350    2.2951   23.9649 H   0  0  0  0  0  0
    5.4029    3.1363   23.1250 H   0  0  0  0  0  0
    4.5586    2.3905   21.0958 H   0  0  0  0  0  0
    4.9519    1.3335   18.8867 H   0  0  0  0  0  0
    7.1650    0.2479   18.4514 H   0  0  0  0  0  0
    8.5696    1.2902   22.2070 H   0  0  0  0  0  0
    2.7591    1.6295   27.2342 H   0  0  0  0  0  0
    3.6824   -2.3414   27.1660 H   0  0  0  0  0  0
    7.8082    0.4967   25.8158 H   0  0  0  0  0  0
    8.8062   -1.7113   25.8231 H   0  0  0  0  0  0
    5.4980   -0.5618   22.3707 H   0  0  0  0  0  0
    5.4933   -2.8233   21.5322 H   0  0  0  0  0  0
    7.1985   -3.0552   21.2500 H   0  0  0  0  0  0
    6.2233   -5.2476   21.8235 H   0  0  0  0  0  0
    5.4714   -4.5966   23.2740 H   0  0  0  0  0  0
    9.8329   -5.0091   24.7079 H   0  0  0  0  0  0
    9.9647   -3.3508   25.1157 H   0  0  0  0  0  0
    9.6507   -4.7824   27.1222 H   0  0  0  0  0  0
  1  2  2  0  0  0
  2  3  1  0  0  0
  2 13  1  0  0  0
  3  4  1  0  0  0
  3 43  1  0  0  0
  4  5  1  0  0  0
  4 44  1  0  0  0
  4 45  1  0  0  0
  5  6  1  0  0  0
  5 46  1  0  0  0
  5 47  1  0  0  0
  6 12  2  0  0  0
  6  7  1  0  0  0
  7  8  2  0  0  0
  7 48  1  0  0  0
  8  9  1  0  0  0
  8 49  1  0  0  0
  9 10  2  0  0  0
  9 50  1  0  0  0
 10 11  1  0  0  0
 10 12  1  0  0  0
 12 51  1  0  0  0
 13 14  1  0  0  0
 13 20  1  0  0  0
 13 52  1  0  0  0
 14 19  2  0  0  0
 14 15  1  0  0  0
 15 16  2  0  0  0
 15 53  1  0  0  0
 16 17  1  0  0  0
 16 54  1  0  0  0
 17 18  2  0  0  0
 17 55  1  0  0  0
 18 19  1  0  0  0
 19 56  1  0  0  0
 20 21  1  0  0  0
 20 28  1  0  0  0
 21 22  2  0  0  0
 21 23  1  0  0  0
 23 27  1  0  0  0
 23 24  2  0  0  0
 24 25  1  0  0  0
 24 57  1  0  0  0
 25 26  1  0  0  0
 26 27  2  0  0  0
 26 58  1  0  0  0
 28 33  2  0  0  0
 28 29  1  0  0  0
 29 30  2  0  0  0
 29 59  1  0  0  0
 30 31  1  0  0  0
 30 60  1  0  0  0
 31 38  1  0  0  0
 31 32  2  0  0  0
 32 33  1  0  0  0
 32 34  1  0  0  0
 33 61  1  0  0  0
 34 35  1  0  0  0
 34 62  1  0  0  0
 34 63  1  0  0  0
 35 36  1  0  0  0
 35 64  1  0  0  0
 35 65  1  0  0  0
 36 37  2  0  0  0
 36 38  1  0  0  0
 38 39  1  0  0  0
 39 40  1  0  0  0
 39 66  1  0  0  0
 39 67  1  0  0  0
 40 41  1  0  0  0
 40 42  1  0  0  0
 40 68  1  0  0  0
M  END
> <r_i_docking_score>
-4.44491353184556

$$$$
ligprep_5.maegz:94
                    3D
 Schrodinger Suite 2020-4.
 66 70  0  0  1  0            999 V2000
    8.3508   -1.4397   24.5541 O   0  0  0  0  0  0
    7.5030   -2.2924   24.2926 C   0  0  0  0  0  0
    6.8880   -2.9948   25.2644 N   0  0  0  0  0  0
    6.9375   -2.6926   26.6891 C   0  0  0  0  0  0
    5.5690   -2.9104   27.3678 C   0  0  0  0  0  0
    5.1967   -4.3712   27.6097 C   0  0  0  0  0  0
    4.5449   -5.1127   26.6190 C   0  0  0  0  0  0
    4.2046   -6.4486   26.8427 C   0  0  0  0  0  0
    4.4981   -7.0474   28.0682 C   0  0  0  0  0  0
    5.1334   -6.3101   29.0659 C   0  0  0  0  0  0
    5.4028   -6.8657   30.2670 F   0  0  0  0  0  0
    5.4849   -4.9830   28.8351 C   0  0  0  0  0  0
    7.1821   -2.6470   22.7916 C   0  0  1  0  0  0
    6.2557   -3.8520   22.7242 C   0  0  0  0  0  0
    6.7680   -5.1165   22.4128 C   0  0  0  0  0  0
    5.9246   -6.2248   22.4464 C   0  0  0  0  0  0
    4.5858   -6.0345   22.7920 C   0  0  0  0  0  0
    4.0631   -4.8231   23.1024 N   0  0  0  0  0  0
    4.8956   -3.7543   23.0582 C   0  0  0  0  0  0
    6.7938   -1.4877   21.8841 N   0  0  0  0  0  0
    6.0595   -1.6299   20.7149 C   0  0  0  0  0  0
    5.5712   -2.6927   20.3172 O   0  0  0  0  0  0
    5.8481   -0.4782   19.8572 C   0  0  0  0  0  0
    6.3470   -0.3546   18.5663 C   0  0  0  0  0  0
    5.9503    0.8411   18.0744 O   0  0  0  0  0  0
    5.2433    1.3806   19.0975 C   0  0  0  0  0  0
    5.1737    0.6219   20.1665 N   0  0  0  0  0  0
    7.4103   -0.2387   22.1255 C   0  0  0  0  0  0
    6.7520    0.7151   22.9045 C   0  0  0  0  0  0
    7.3657    1.9367   23.1614 C   0  0  0  0  0  0
    8.6375    2.2102   22.6385 C   0  0  0  0  0  0
    9.3129    3.4021   22.8148 O   0  0  0  0  0  0
    8.6713    4.5191   23.4373 C   0  0  2  0  0  0
    7.4880    5.0608   22.6351 C   0  0  0  0  0  0
    7.9527    6.4110   22.1107 C   0  0  0  0  0  0
    8.9527    6.8247   23.0327 O   0  0  0  0  0  0
    9.6854    5.6711   23.4295 C   0  0  0  0  0  0
    9.2975    1.2379   21.8889 C   0  0  0  0  0  0
    8.6894    0.0139   21.6255 C   0  0  0  0  0  0
    6.2926   -3.7640   24.9878 H   0  0  0  0  0  0
    7.3083   -1.6896   26.9118 H   0  0  0  0  0  0
    7.6805   -3.3579   27.1318 H   0  0  0  0  0  0
    4.7827   -2.4166   26.7933 H   0  0  0  0  0  0
    5.5502   -2.3755   28.3150 H   0  0  0  0  0  0
    4.2949   -4.6533   25.6770 H   0  0  0  0  0  0
    3.7059   -7.0172   26.0722 H   0  0  0  0  0  0
    4.2332   -8.0794   28.2493 H   0  0  0  0  0  0
    5.9702   -4.4500   29.6349 H   0  0  0  0  0  0
    8.1386   -2.9773   22.3820 H   0  0  0  0  0  0
    7.8127   -5.2430   22.1618 H   0  0  0  0  0  0
    6.3002   -7.2105   22.2129 H   0  0  0  0  0  0
    3.8942   -6.8599   22.8163 H   0  0  0  0  0  0
    4.4613   -2.7982   23.3162 H   0  0  0  0  0  0
    6.9337   -0.9856   17.9112 H   0  0  0  0  0  0
    4.8261    2.3629   18.9266 H   0  0  0  0  0  0
    5.7669    0.5123   23.3026 H   0  0  0  0  0  0
    6.8371    2.6585   23.7633 H   0  0  0  0  0  0
    8.4124    4.2653   24.4670 H   0  0  0  0  0  0
    7.2251    4.4323   21.7838 H   0  0  0  0  0  0
    6.6059    5.1712   23.2654 H   0  0  0  0  0  0
    8.3763    6.3471   21.1084 H   0  0  0  0  0  0
    7.1496    7.1459   22.0500 H   0  0  0  0  0  0
   10.1456    5.8365   24.4050 H   0  0  0  0  0  0
   10.4998    5.5196   22.7185 H   0  0  0  0  0  0
   10.2866    1.4399   21.5075 H   0  0  0  0  0  0
    9.2099   -0.7355   21.0469 H   0  0  0  0  0  0
  1  2  2  0  0  0
  2  3  1  0  0  0
  2 13  1  0  0  0
  3  4  1  0  0  0
  3 40  1  0  0  0
  4  5  1  0  0  0
  4 41  1  0  0  0
  4 42  1  0  0  0
  5  6  1  0  0  0
  5 43  1  0  0  0
  5 44  1  0  0  0
  6 12  2  0  0  0
  6  7  1  0  0  0
  7  8  2  0  0  0
  7 45  1  0  0  0
  8  9  1  0  0  0
  8 46  1  0  0  0
  9 10  2  0  0  0
  9 47  1  0  0  0
 10 11  1  0  0  0
 10 12  1  0  0  0
 12 48  1  0  0  0
 13 14  1  0  0  0
 13 20  1  0  0  0
 13 49  1  0  0  0
 14 19  2  0  0  0
 14 15  1  0  0  0
 15 16  2  0  0  0
 15 50  1  0  0  0
 16 17  1  0  0  0
 16 51  1  0  0  0
 17 18  2  0  0  0
 17 52  1  0  0  0
 18 19  1  0  0  0
 19 53  1  0  0  0
 20 21  1  0  0  0
 20 28  1  0  0  0
 21 22  2  0  0  0
 21 23  1  0  0  0
 23 27  1  0  0  0
 23 24  2  0  0  0
 24 25  1  0  0  0
 24 54  1  0  0  0
 25 26  1  0  0  0
 26 27  2  0  0  0
 26 55  1  0  0  0
 28 39  2  0  0  0
 28 29  1  0  0  0
 29 30  2  0  0  0
 29 56  1  0  0  0
 30 31  1  0  0  0
 30 57  1  0  0  0
 31 32  1  0  0  0
 31 38  2  0  0  0
 32 33  1  0  0  0
 33 37  1  0  0  0
 33 34  1  0  0  0
 33 58  1  0  0  0
 34 35  1  0  0  0
 34 59  1  0  0  0
 34 60  1  0  0  0
 35 36  1  0  0  0
 35 61  1  0  0  0
 35 62  1  0  0  0
 36 37  1  0  0  0
 37 63  1  0  0  0
 37 64  1  0  0  0
 38 39  1  0  0  0
 38 65  1  0  0  0
 39 66  1  0  0  0
M  END
> <r_i_docking_score>
-3.40624584574193

$$$$
ligprep_5.maegz:95
                    3D
 Schrodinger Suite 2020-4.
 64 68  0  0  1  0            999 V2000
    9.5309   -2.3366   23.2795 O   0  0  0  0  0  0
    8.3788   -2.3217   22.8341 C   0  0  0  0  0  0
    8.0398   -1.6919   21.7072 N   0  0  0  0  0  0
    8.9697   -0.8531   20.9745 C   0  0  0  0  0  0
    8.5322    0.6262   21.0516 C   0  0  0  0  0  0
    7.2152    0.9481   20.3464 C   0  0  0  0  0  0
    6.9241    0.4470   19.0693 C   0  0  0  0  0  0
    5.7089    0.7474   18.4538 C   0  0  0  0  0  0
    4.7737    1.5471   19.1083 C   0  0  0  0  0  0
    5.0529    2.0486   20.3770 C   0  0  0  0  0  0
    4.1411    2.8111   21.0193 F   0  0  0  0  0  0
    6.2737    1.7599   20.9852 C   0  0  0  0  0  0
    7.2124   -2.9893   23.6147 C   0  0  1  0  0  0
    7.7298   -3.8024   24.7818 C   0  0  0  0  0  0
    8.3694   -5.0114   24.5062 C   0  0  0  0  0  0
    9.0934   -5.6508   25.5078 C   0  0  0  0  0  0
    9.0429   -5.1348   26.7938 C   0  0  0  0  0  0
    8.3368   -4.0256   27.1081 N   0  0  0  0  0  0
    7.6962   -3.3725   26.1152 C   0  0  0  0  0  0
    6.0728   -2.0900   24.0249 N   0  0  0  0  0  0
    4.8336   -2.6057   24.3545 C   0  0  0  0  0  0
    4.0399   -2.0329   25.1084 O   0  0  0  0  0  0
    4.4514   -3.9282   23.8733 C   0  0  0  0  0  0
    3.5375   -4.7688   24.5085 C   0  0  0  0  0  0
    3.4052   -5.8967   23.7763 O   0  0  0  0  0  0
    4.2048   -5.6613   22.7093 C   0  0  0  0  0  0
    4.7691   -4.4797   22.7079 N   0  0  0  0  0  0
    6.3707   -0.7517   24.3838 C   0  0  0  0  0  0
    7.5530   -0.2820   24.9566 C   0  0  0  0  0  0
    7.5040    1.0841   24.9334 N   0  0  0  0  0  0
    8.5578    2.0173   25.2983 C   0  0  0  0  0  0
    9.7808    2.0007   24.3783 C   0  0  0  0  0  0
   10.0723    3.1161   23.5861 C   0  0  0  0  0  0
   11.2056    3.1163   22.7754 C   0  0  0  0  0  0
   12.0405    2.0024   22.7514 C   0  0  0  0  0  0
   11.7499    0.8813   23.5214 C   0  0  0  0  0  0
   10.6267    0.8854   24.3432 C   0  0  0  0  0  0
    6.2477    1.3580   24.4645 C   0  0  0  0  0  0
    5.5702    0.2830   24.1385 N   0  0  0  0  0  0
    7.0805   -1.7106   21.3892 H   0  0  0  0  0  0
    8.9401   -1.2474   19.9563 H   0  0  0  0  0  0
   10.0232   -0.9517   21.2533 H   0  0  0  0  0  0
    9.3231    1.2867   20.7076 H   0  0  0  0  0  0
    8.4471    0.8818   22.1084 H   0  0  0  0  0  0
    7.6341   -0.1674   18.5349 H   0  0  0  0  0  0
    5.4926    0.3639   17.4678 H   0  0  0  0  0  0
    3.8351    1.7878   18.6338 H   0  0  0  0  0  0
    6.4787    2.1721   21.9594 H   0  0  0  0  0  0
    6.8773   -3.6899   22.8622 H   0  0  0  0  0  0
    8.3706   -5.3966   23.4970 H   0  0  0  0  0  0
    9.7177   -6.4935   25.2914 H   0  0  0  0  0  0
    9.5829   -5.6151   27.5957 H   0  0  0  0  0  0
    7.1891   -2.4694   26.4141 H   0  0  0  0  0  0
    2.9745   -4.7081   25.4305 H   0  0  0  0  0  0
    4.2795   -6.4522   21.9823 H   0  0  0  0  0  0
    8.4437   -0.7938   25.2811 H   0  0  0  0  0  0
    8.1301    3.0200   25.3569 H   0  0  0  0  0  0
    8.8643    1.7646   26.3078 H   0  0  0  0  0  0
    9.4273    3.9832   23.5952 H   0  0  0  0  0  0
   11.4349    3.9765   22.1648 H   0  0  0  0  0  0
   12.9193    2.0033   22.1219 H   0  0  0  0  0  0
   12.3959    0.0142   23.4900 H   0  0  0  0  0  0
   10.4285    0.0188   24.9543 H   0  0  0  0  0  0
    5.9198    2.3793   24.3492 H   0  0  0  0  0  0
  1  2  2  0  0  0
  2  3  1  0  0  0
  2 13  1  0  0  0
  3  4  1  0  0  0
  3 40  1  0  0  0
  4  5  1  0  0  0
  4 41  1  0  0  0
  4 42  1  0  0  0
  5  6  1  0  0  0
  5 43  1  0  0  0
  5 44  1  0  0  0
  6 12  2  0  0  0
  6  7  1  0  0  0
  7  8  2  0  0  0
  7 45  1  0  0  0
  8  9  1  0  0  0
  8 46  1  0  0  0
  9 10  2  0  0  0
  9 47  1  0  0  0
 10 11  1  0  0  0
 10 12  1  0  0  0
 12 48  1  0  0  0
 13 14  1  0  0  0
 13 20  1  0  0  0
 13 49  1  0  0  0
 14 19  2  0  0  0
 14 15  1  0  0  0
 15 16  2  0  0  0
 15 50  1  0  0  0
 16 17  1  0  0  0
 16 51  1  0  0  0
 17 18  2  0  0  0
 17 52  1  0  0  0
 18 19  1  0  0  0
 19 53  1  0  0  0
 20 21  1  0  0  0
 20 28  1  0  0  0
 21 22  2  0  0  0
 21 23  1  0  0  0
 23 27  1  0  0  0
 23 24  2  0  0  0
 24 25  1  0  0  0
 24 54  1  0  0  0
 25 26  1  0  0  0
 26 27  2  0  0  0
 26 55  1  0  0  0
 28 39  1  0  0  0
 28 29  2  0  0  0
 29 30  1  0  0  0
 29 56  1  0  0  0
 30 31  1  0  0  0
 30 38  1  0  0  0
 31 32  1  0  0  0
 31 57  1  0  0  0
 31 58  1  0  0  0
 32 37  2  0  0  0
 32 33  1  0  0  0
 33 34  2  0  0  0
 33 59  1  0  0  0
 34 35  1  0  0  0
 34 60  1  0  0  0
 35 36  2  0  0  0
 35 61  1  0  0  0
 36 37  1  0  0  0
 36 62  1  0  0  0
 37 63  1  0  0  0
 38 39  2  0  0  0
 38 64  1  0  0  0
M  END
> <r_i_docking_score>
-5.56424609497916

$$$$
ligprep_5.maegz:96
                    3D
 Schrodinger Suite 2020-4.
 56 60  0  0  1  0            999 V2000
    8.3482    1.7620   24.5633 O   0  0  0  0  0  0
    8.1449    1.6351   23.3556 C   0  0  0  0  0  0
    9.0309    2.0544   22.4341 N   0  0  0  0  0  0
   10.3017    2.7479   22.6876 C   0  0  0  0  0  0
   11.2991    2.0807   23.6731 C   0  0  0  0  0  0
   11.5968    0.6168   23.3789 C   0  0  0  0  0  0
   10.9022   -0.3846   24.0618 C   0  0  0  0  0  0
   11.0897   -1.7235   23.7231 C   0  0  0  0  0  0
   11.9766   -2.0663   22.7085 C   0  0  0  0  0  0
   12.7368   -1.0843   22.0844 C   0  0  0  0  0  0
   13.6544   -1.4402   21.1578 F   0  0  0  0  0  0
   12.5472    0.2590   22.4163 C   0  0  0  0  0  0
    6.7874    1.0189   22.8722 C   0  0  1  0  0  0
    6.6491    0.7850   21.3671 C   0  0  0  0  0  0
    5.5171    1.2811   20.7065 C   0  0  0  0  0  0
    5.3662    1.1076   19.3300 C   0  0  0  0  0  0
    6.3684    0.4323   18.6362 C   0  0  0  0  0  0
    7.4812   -0.0533   19.2394 N   0  0  0  0  0  0
    7.6065    0.1249   20.5781 C   0  0  0  0  0  0
    6.3692   -0.1642   23.7093 N   0  0  0  0  0  0
    5.6937    0.0924   24.8893 C   0  0  0  0  0  0
    5.2851    1.2200   25.1862 O   0  0  0  0  0  0
    5.4292   -0.9775   25.8486 C   0  0  0  0  0  0
    4.4404   -0.9268   26.8298 C   0  0  0  0  0  0
    4.5144   -2.0511   27.5768 O   0  0  0  0  0  0
    5.5695   -2.7055   27.0395 C   0  0  0  0  0  0
    6.1625   -2.0663   26.0609 N   0  0  0  0  0  0
    6.5639   -1.4931   23.2374 C   0  0  0  0  0  0
    7.8650   -1.9296   22.9909 C   0  0  0  0  0  0
    8.1547   -3.2352   22.5992 C   0  0  0  0  0  0
    7.0884   -4.1322   22.4978 C   0  0  0  0  0  0
    7.0952   -5.8447   22.1065 S   0  0  0  0  0  0
    5.3658   -5.8299   22.3327 C   0  0  0  0  0  0
    4.8163   -4.6890   22.6380 N   0  0  0  0  0  0
    5.7544   -3.7111   22.7348 C   0  0  0  0  0  0
    5.4865   -2.3767   23.0631 C   0  0  0  0  0  0
    8.7547    1.9666   21.4682 H   0  0  0  0  0  0
   10.7698    2.7521   21.7023 H   0  0  0  0  0  0
   10.1066    3.7853   22.9642 H   0  0  0  0  0  0
   12.2339    2.6414   23.6785 H   0  0  0  0  0  0
   10.9253    2.1699   24.6941 H   0  0  0  0  0  0
   10.1900   -0.1275   24.8334 H   0  0  0  0  0  0
   10.5390   -2.4960   24.2391 H   0  0  0  0  0  0
   12.1177   -3.1016   22.4405 H   0  0  0  0  0  0
   13.1223    1.0185   21.9084 H   0  0  0  0  0  0
    6.1077    1.8464   23.0817 H   0  0  0  0  0  0
    4.7465    1.7997   21.2592 H   0  0  0  0  0  0
    4.4963    1.4897   18.8147 H   0  0  0  0  0  0
    6.2946    0.2792   17.5684 H   0  0  0  0  0  0
    8.5127   -0.2744   21.0067 H   0  0  0  0  0  0
    3.6676   -0.2145   27.0818 H   0  0  0  0  0  0
    5.8339   -3.6474   27.4969 H   0  0  0  0  0  0
    8.6658   -1.2225   23.1016 H   0  0  0  0  0  0
    9.1694   -3.5501   22.4016 H   0  0  0  0  0  0
    4.7976   -6.7432   22.2329 H   0  0  0  0  0  0
    4.4738   -2.0559   23.2517 H   0  0  0  0  0  0
  1  2  2  0  0  0
  2  3  1  0  0  0
  2 13  1  0  0  0
  3  4  1  0  0  0
  3 37  1  0  0  0
  4  5  1  0  0  0
  4 38  1  0  0  0
  4 39  1  0  0  0
  5  6  1  0  0  0
  5 40  1  0  0  0
  5 41  1  0  0  0
  6 12  2  0  0  0
  6  7  1  0  0  0
  7  8  2  0  0  0
  7 42  1  0  0  0
  8  9  1  0  0  0
  8 43  1  0  0  0
  9 10  2  0  0  0
  9 44  1  0  0  0
 10 11  1  0  0  0
 10 12  1  0  0  0
 12 45  1  0  0  0
 13 14  1  0  0  0
 13 20  1  0  0  0
 13 46  1  0  0  0
 14 19  2  0  0  0
 14 15  1  0  0  0
 15 16  2  0  0  0
 15 47  1  0  0  0
 16 17  1  0  0  0
 16 48  1  0  0  0
 17 18  2  0  0  0
 17 49  1  0  0  0
 18 19  1  0  0  0
 19 50  1  0  0  0
 20 21  1  0  0  0
 20 28  1  0  0  0
 21 22  2  0  0  0
 21 23  1  0  0  0
 23 27  1  0  0  0
 23 24  2  0  0  0
 24 25  1  0  0  0
 24 51  1  0  0  0
 25 26  1  0  0  0
 26 27  2  0  0  0
 26 52  1  0  0  0
 28 36  2  0  0  0
 28 29  1  0  0  0
 29 30  2  0  0  0
 29 53  1  0  0  0
 30 31  1  0  0  0
 30 54  1  0  0  0
 31 35  2  0  0  0
 31 32  1  0  0  0
 32 33  1  0  0  0
 33 34  2  0  0  0
 33 55  1  0  0  0
 34 35  1  0  0  0
 35 36  1  0  0  0
 36 56  1  0  0  0
M  END
> <r_i_docking_score>
-5.45513986467966

$$$$
ligprep_5.maegz:97
                    3D
 Schrodinger Suite 2020-4.
 56 59  0  0  1  0            999 V2000
    6.6299    2.6755   23.5729 O   0  0  0  0  0  0
    7.6069    2.1170   24.0743 C   0  0  0  0  0  0
    8.4809    2.7302   24.8879 N   0  0  0  0  0  0
    8.5027    4.1783   25.0708 C   0  0  0  0  0  0
    9.0677    4.9572   23.8551 C   0  0  0  0  0  0
   10.5333    4.6951   23.5027 C   0  0  0  0  0  0
   11.4482    5.7526   23.5085 C   0  0  0  0  0  0
   12.7693    5.5467   23.1093 C   0  0  0  0  0  0
   13.1910    4.2799   22.7120 C   0  0  0  0  0  0
   12.2930    3.2163   22.7165 C   0  0  0  0  0  0
   12.7082    1.9854   22.3392 F   0  0  0  0  0  0
   10.9699    3.4253   23.1028 C   0  0  0  0  0  0
    7.9118    0.6328   23.7418 C   0  0  1  0  0  0
    7.3738   -0.2586   24.8434 C   0  0  0  0  0  0
    8.2378   -0.9098   25.7313 C   0  0  0  0  0  0
    7.7149   -1.7667   26.6998 C   0  0  0  0  0  0
    6.3307   -1.9445   26.7548 C   0  0  0  0  0  0
    5.4683   -1.3015   25.9302 N   0  0  0  0  0  0
    5.9946   -0.4683   24.9988 C   0  0  0  0  0  0
    7.5795    0.1370   22.3509 N   0  0  0  0  0  0
    7.7686    0.9265   21.2355 C   0  0  0  0  0  0
    8.4590    1.9463   21.2250 O   0  0  0  0  0  0
    7.0727    0.5894   20.0223 C   0  0  0  0  0  0
    5.9688    1.2824   19.5420 C   0  0  0  0  0  0
    5.5247    0.6419   18.4385 O   0  0  0  0  0  0
    6.3695   -0.4093   18.3341 C   0  0  0  0  0  0
    7.3107   -0.4529   19.2459 N   0  0  0  0  0  0
    7.2673   -1.2363   22.1866 C   0  0  0  0  0  0
    8.2697   -2.1946   22.3759 C   0  0  0  0  0  0
    7.9482   -3.5483   22.3079 C   0  0  0  0  0  0
    6.6290   -3.9196   22.0219 C   0  0  0  0  0  0
    6.2207   -5.3871   21.8884 C   0  0  0  0  0  0
    7.1795   -6.2173   22.3044 F   0  0  0  0  0  0
    5.1221   -5.6345   22.6023 F   0  0  0  0  0  0
    5.9702   -5.6535   20.6067 F   0  0  0  0  0  0
    5.6442   -2.9984   21.8240 N   0  0  0  0  0  0
    5.9695   -1.6827   21.9153 C   0  0  0  0  0  0
    9.2307    2.1967   25.3063 H   0  0  0  0  0  0
    7.5371    4.5764   25.3870 H   0  0  0  0  0  0
    9.1709    4.3433   25.9144 H   0  0  0  0  0  0
    8.4619    4.7506   22.9695 H   0  0  0  0  0  0
    8.9190    6.0218   24.0306 H   0  0  0  0  0  0
   11.1342    6.7432   23.8017 H   0  0  0  0  0  0
   13.4690    6.3704   23.1030 H   0  0  0  0  0  0
   14.2145    4.1155   22.4095 H   0  0  0  0  0  0
   10.2846    2.5958   23.0497 H   0  0  0  0  0  0
    9.0008    0.5478   23.7490 H   0  0  0  0  0  0
    9.3065   -0.7696   25.6617 H   0  0  0  0  0  0
    8.3696   -2.2887   27.3798 H   0  0  0  0  0  0
    5.8883   -2.6077   27.4818 H   0  0  0  0  0  0
    5.2880    0.0144   24.3370 H   0  0  0  0  0  0
    5.4291    2.1654   19.8545 H   0  0  0  0  0  0
    6.2095   -1.0789   17.5063 H   0  0  0  0  0  0
    9.2838   -1.8962   22.5904 H   0  0  0  0  0  0
    8.7188   -4.2883   22.4608 H   0  0  0  0  0  0
    5.1697   -0.9728   21.7639 H   0  0  0  0  0  0
  1  2  2  0  0  0
  2  3  1  0  0  0
  2 13  1  0  0  0
  3  4  1  0  0  0
  3 38  1  0  0  0
  4  5  1  0  0  0
  4 39  1  0  0  0
  4 40  1  0  0  0
  5  6  1  0  0  0
  5 41  1  0  0  0
  5 42  1  0  0  0
  6 12  2  0  0  0
  6  7  1  0  0  0
  7  8  2  0  0  0
  7 43  1  0  0  0
  8  9  1  0  0  0
  8 44  1  0  0  0
  9 10  2  0  0  0
  9 45  1  0  0  0
 10 11  1  0  0  0
 10 12  1  0  0  0
 12 46  1  0  0  0
 13 14  1  0  0  0
 13 20  1  0  0  0
 13 47  1  0  0  0
 14 19  2  0  0  0
 14 15  1  0  0  0
 15 16  2  0  0  0
 15 48  1  0  0  0
 16 17  1  0  0  0
 16 49  1  0  0  0
 17 18  2  0  0  0
 17 50  1  0  0  0
 18 19  1  0  0  0
 19 51  1  0  0  0
 20 21  1  0  0  0
 20 28  1  0  0  0
 21 22  2  0  0  0
 21 23  1  0  0  0
 23 27  1  0  0  0
 23 24  2  0  0  0
 24 25  1  0  0  0
 24 52  1  0  0  0
 25 26  1  0  0  0
 26 27  2  0  0  0
 26 53  1  0  0  0
 28 37  2  0  0  0
 28 29  1  0  0  0
 29 30  2  0  0  0
 29 54  1  0  0  0
 30 31  1  0  0  0
 30 55  1  0  0  0
 31 32  1  0  0  0
 31 36  2  0  0  0
 32 33  1  0  0  0
 32 34  1  0  0  0
 32 35  1  0  0  0
 36 37  1  0  0  0
 37 56  1  0  0  0
M  END
> <r_i_docking_score>
-4.8035574737427

$$$$
ligprep_5.maegz:98
                    3D
 Schrodinger Suite 2020-4.
 62 66  0  0  1  0            999 V2000
   11.2271   -2.0252   23.4118 O   0  0  0  0  0  0
   10.6334   -1.2356   24.1477 C   0  0  0  0  0  0
   11.1384   -0.0308   24.4623 N   0  0  0  0  0  0
   12.3328    0.5393   23.8420 C   0  0  0  0  0  0
   12.0373    1.3938   22.6018 C   0  0  0  0  0  0
   12.0341    2.8890   22.8678 C   0  0  0  0  0  0
   11.0445    3.4721   23.6633 C   0  0  0  0  0  0
   11.0560    4.8483   23.8981 C   0  0  0  0  0  0
   12.0486    5.6459   23.3256 C   0  0  0  0  0  0
   13.0251    5.0722   22.5122 C   0  0  0  0  0  0
   13.9640    5.8461   21.9182 F   0  0  0  0  0  0
   13.0246    3.6967   22.2987 C   0  0  0  0  0  0
    9.2691   -1.6684   24.7689 C   0  0  1  0  0  0
    8.4497   -0.5776   25.4534 C   0  0  0  0  0  0
    7.8243   -0.8499   26.6750 C   0  0  0  0  0  0
    7.0546    0.1323   27.3018 C   0  0  0  0  0  0
    6.9297    1.3775   26.6878 C   0  0  0  0  0  0
    7.5196    1.6740   25.5033 N   0  0  0  0  0  0
    8.2616    0.7059   24.9089 C   0  0  0  0  0  0
    8.4248   -2.4156   23.7879 N   0  0  0  0  0  0
    8.2501   -3.7750   23.9291 C   0  0  0  0  0  0
    8.7687   -4.4060   24.8570 O   0  0  0  0  0  0
    7.4594   -4.5392   22.9618 C   0  0  0  0  0  0
    7.5696   -5.9168   22.7809 C   0  0  0  0  0  0
    6.6440   -6.3203   21.8922 O   0  0  0  0  0  0
    6.0113   -5.1713   21.5749 C   0  0  0  0  0  0
    6.4480   -4.1111   22.2124 N   0  0  0  0  0  0
    7.9625   -1.7050   22.6709 C   0  0  0  0  0  0
    8.7336   -1.5586   21.5084 C   0  0  0  0  0  0
    8.3466   -0.7589   20.4849 N   0  0  0  0  0  0
    7.1559   -0.1252   20.6446 C   0  0  0  0  0  0
    6.6396    0.6925   19.4798 C   0  0  0  0  0  0
    5.7402    0.0121   18.4437 C   0  0  0  0  0  0
    4.9472    1.3137   18.3092 C   0  0  0  0  0  0
    5.5011    1.7182   19.6677 C   0  0  0  0  0  0
    6.3359   -0.2193   21.7216 N   0  0  0  0  0  0
    6.7511   -1.0135   22.7313 C   0  0  0  0  0  0
   10.6458    0.5421   25.1337 H   0  0  0  0  0  0
   13.0078   -0.2518   23.5067 H   0  0  0  0  0  0
   12.9300    1.0851   24.5697 H   0  0  0  0  0  0
   11.1107    1.0864   22.1136 H   0  0  0  0  0  0
   12.8113    1.1737   21.8682 H   0  0  0  0  0  0
   10.2707    2.8622   24.1070 H   0  0  0  0  0  0
   10.2947    5.2932   24.5190 H   0  0  0  0  0  0
   12.0543    6.7110   23.5015 H   0  0  0  0  0  0
   13.7902    3.2578   21.6789 H   0  0  0  0  0  0
    9.5696   -2.3443   25.5656 H   0  0  0  0  0  0
    7.9278   -1.8241   27.1280 H   0  0  0  0  0  0
    6.5679   -0.0649   28.2448 H   0  0  0  0  0  0
    6.3415    2.1605   27.1411 H   0  0  0  0  0  0
    8.6837    0.9675   23.9488 H   0  0  0  0  0  0
    8.2234   -6.6758   23.1824 H   0  0  0  0  0  0
    5.2239   -5.2529   20.8424 H   0  0  0  0  0  0
    9.6814   -2.0642   21.3892 H   0  0  0  0  0  0
    7.4660    1.1663   18.9441 H   0  0  0  0  0  0
    6.2390   -0.3432   17.5454 H   0  0  0  0  0  0
    5.1702   -0.8108   18.8794 H   0  0  0  0  0  0
    5.2768    1.9524   17.4871 H   0  0  0  0  0  0
    3.8658    1.1995   18.3076 H   0  0  0  0  0  0
    4.8063    1.4822   20.4794 H   0  0  0  0  0  0
    5.8007    2.7558   19.7698 H   0  0  0  0  0  0
    6.1150   -1.0587   23.6013 H   0  0  0  0  0  0
  1  2  2  0  0  0
  2  3  1  0  0  0
  2 13  1  0  0  0
  3  4  1  0  0  0
  3 38  1  0  0  0
  4  5  1  0  0  0
  4 39  1  0  0  0
  4 40  1  0  0  0
  5  6  1  0  0  0
  5 41  1  0  0  0
  5 42  1  0  0  0
  6 12  2  0  0  0
  6  7  1  0  0  0
  7  8  2  0  0  0
  7 43  1  0  0  0
  8  9  1  0  0  0
  8 44  1  0  0  0
  9 10  2  0  0  0
  9 45  1  0  0  0
 10 11  1  0  0  0
 10 12  1  0  0  0
 12 46  1  0  0  0
 13 14  1  0  0  0
 13 20  1  0  0  0
 13 47  1  0  0  0
 14 19  2  0  0  0
 14 15  1  0  0  0
 15 16  2  0  0  0
 15 48  1  0  0  0
 16 17  1  0  0  0
 16 49  1  0  0  0
 17 18  2  0  0  0
 17 50  1  0  0  0
 18 19  1  0  0  0
 19 51  1  0  0  0
 20 21  1  0  0  0
 20 28  1  0  0  0
 21 22  2  0  0  0
 21 23  1  0  0  0
 23 27  1  0  0  0
 23 24  2  0  0  0
 24 25  1  0  0  0
 24 52  1  0  0  0
 25 26  1  0  0  0
 26 27  2  0  0  0
 26 53  1  0  0  0
 28 37  2  0  0  0
 28 29  1  0  0  0
 29 30  2  0  0  0
 29 54  1  0  0  0
 30 31  1  0  0  0
 31 32  1  0  0  0
 31 36  2  0  0  0
 32 35  1  0  0  0
 32 33  1  0  0  0
 32 55  1  0  0  0
 33 34  1  0  0  0
 33 56  1  0  0  0
 33 57  1  0  0  0
 34 35  1  0  0  0
 34 58  1  0  0  0
 34 59  1  0  0  0
 35 60  1  0  0  0
 35 61  1  0  0  0
 36 37  1  0  0  0
 37 62  1  0  0  0
M  END
> <r_i_docking_score>
-4.25404446842828

$$$$
ligprep_5.maegz:99
                    3D
 Schrodinger Suite 2020-4.
 61 64  0  0  1  0            999 V2000
   13.3105    2.9840   22.4162 C   0  0  0  0  0  0
   12.5495    1.6896   22.7088 C   0  0  0  0  0  0
   11.1720    2.0295   22.8356 O   0  0  0  0  0  0
   10.1838    1.0850   22.6406 C   0  0  0  0  0  0
   10.3776   -0.1842   22.0714 C   0  0  0  0  0  0
    9.3025   -1.0565   21.9190 C   0  0  0  0  0  0
    8.0280   -0.6750   22.3471 C   0  0  0  0  0  0
    6.9750   -1.6224   22.2840 N   0  0  0  0  0  0
    6.2528   -1.7599   21.1185 C   0  0  0  0  0  0
    5.5696   -2.7567   20.8704 O   0  0  0  0  0  0
    6.2372   -0.6828   20.1376 C   0  0  0  0  0  0
    5.9750    0.6632   20.3959 C   0  0  0  0  0  0
    5.8677    1.3184   19.2200 O   0  0  0  0  0  0
    6.0388    0.3358   18.3089 C   0  0  0  0  0  0
    6.2427   -0.8539   18.8225 N   0  0  0  0  0  0
    6.5992   -2.4377   23.5035 C   0  0  1  0  0  0
    6.9270   -3.9667   23.4757 C   0  0  0  0  0  0
    7.7581   -4.4605   24.2402 O   0  0  0  0  0  0
    6.1661   -4.7139   22.6623 N   0  0  0  0  0  0
    6.0456   -6.1692   22.7211 C   0  0  0  0  0  0
    5.1699   -6.6706   23.8971 C   0  0  0  0  0  0
    3.7541   -6.1051   23.9511 C   0  0  0  0  0  0
    2.7049   -6.7452   23.2824 C   0  0  0  0  0  0
    1.4067   -6.2401   23.3616 C   0  0  0  0  0  0
    1.1501   -5.0952   24.1152 C   0  0  0  0  0  0
    2.1916   -4.4526   24.7836 C   0  0  0  0  0  0
    1.9426   -3.3363   25.5059 F   0  0  0  0  0  0
    3.4898   -4.9529   24.6988 C   0  0  0  0  0  0
    7.0654   -1.7773   24.8014 C   0  0  0  0  0  0
    8.4137   -1.7004   25.2000 C   0  0  0  0  0  0
    8.7615   -0.9846   26.3486 C   0  0  0  0  0  0
    7.7405   -0.4075   27.1038 C   0  0  0  0  0  0
    6.4299   -0.5032   26.7713 N   0  0  0  0  0  0
    6.1135   -1.1775   25.6373 C   0  0  0  0  0  0
    7.8308    0.5864   22.9191 C   0  0  0  0  0  0
    8.9038    1.4628   23.0457 C   0  0  0  0  0  0
   14.3744    2.7882   22.2907 H   0  0  0  0  0  0
   12.9457    3.4528   21.5015 H   0  0  0  0  0  0
   13.1987    3.7018   23.2288 H   0  0  0  0  0  0
   12.9019    1.2376   23.6375 H   0  0  0  0  0  0
   12.7604    0.9893   21.9072 H   0  0  0  0  0  0
   11.3438   -0.5265   21.7381 H   0  0  0  0  0  0
    9.4678   -2.0375   21.4928 H   0  0  0  0  0  0
    5.7862    1.2485   21.2826 H   0  0  0  0  0  0
    5.9791    0.6289   17.2711 H   0  0  0  0  0  0
    5.5086   -2.4019   23.5508 H   0  0  0  0  0  0
    5.5706   -4.2186   22.0094 H   0  0  0  0  0  0
    7.0187   -6.6644   22.7043 H   0  0  0  0  0  0
    5.5434   -6.4331   21.7897 H   0  0  0  0  0  0
    5.6616   -6.4424   24.8432 H   0  0  0  0  0  0
    5.1254   -7.7591   23.8851 H   0  0  0  0  0  0
    2.8837   -7.6427   22.7101 H   0  0  0  0  0  0
    0.6014   -6.7401   22.8431 H   0  0  0  0  0  0
    0.1465   -4.7010   24.1786 H   0  0  0  0  0  0
    4.2876   -4.4478   25.2234 H   0  0  0  0  0  0
    9.1888   -2.1503   24.5961 H   0  0  0  0  0  0
    9.7933   -0.8529   26.6398 H   0  0  0  0  0  0
    7.9699    0.1714   27.9864 H   0  0  0  0  0  0
    5.0619   -1.2049   25.3866 H   0  0  0  0  0  0
    6.8580    0.8764   23.2869 H   0  0  0  0  0  0
    8.7488    2.4371   23.4859 H   0  0  0  0  0  0
  1  2  1  0  0  0
  1 37  1  0  0  0
  1 38  1  0  0  0
  1 39  1  0  0  0
  2  3  1  0  0  0
  2 40  1  0  0  0
  2 41  1  0  0  0
  3  4  1  0  0  0
  4 36  2  0  0  0
  4  5  1  0  0  0
  5  6  2  0  0  0
  5 42  1  0  0  0
  6  7  1  0  0  0
  6 43  1  0  0  0
  7  8  1  0  0  0
  7 35  2  0  0  0
  8  9  1  0  0  0
  8 16  1  0  0  0
  9 10  2  0  0  0
  9 11  1  0  0  0
 11 15  1  0  0  0
 11 12  2  0  0  0
 12 13  1  0  0  0
 12 44  1  0  0  0
 13 14  1  0  0  0
 14 15  2  0  0  0
 14 45  1  0  0  0
 16 17  1  0  0  0
 16 29  1  0  0  0
 16 46  1  0  0  0
 17 18  2  0  0  0
 17 19  1  0  0  0
 19 20  1  0  0  0
 19 47  1  0  0  0
 20 21  1  0  0  0
 20 48  1  0  0  0
 20 49  1  0  0  0
 21 22  1  0  0  0
 21 50  1  0  0  0
 21 51  1  0  0  0
 22 28  2  0  0  0
 22 23  1  0  0  0
 23 24  2  0  0  0
 23 52  1  0  0  0
 24 25  1  0  0  0
 24 53  1  0  0  0
 25 26  2  0  0  0
 25 54  1  0  0  0
 26 27  1  0  0  0
 26 28  1  0  0  0
 28 55  1  0  0  0
 29 34  2  0  0  0
 29 30  1  0  0  0
 30 31  2  0  0  0
 30 56  1  0  0  0
 31 32  1  0  0  0
 31 57  1  0  0  0
 32 33  2  0  0  0
 32 58  1  0  0  0
 33 34  1  0  0  0
 34 59  1  0  0  0
 35 36  1  0  0  0
 35 60  1  0  0  0
 36 61  1  0  0  0
M  END
> <r_i_docking_score>
-4.16692920455496

$$$$
ligprep_5.maegz:100
                    3D
 Schrodinger Suite 2020-4.
 69 74  0  0  1  0            999 V2000
   12.1662   -0.4406   23.1079 O   0  0  0  0  0  0
   11.1707   -0.1659   23.7840 C   0  0  0  0  0  0
   10.9897    1.3259   24.1679 C   0  0  0  0  0  0
   10.4446    2.3470   23.0802 C   0  0  2  0  0  0
    9.3619    1.6928   22.1237 C   0  0  0  0  0  0
    9.6730    0.6776   21.5079 O   0  0  0  0  0  0
    8.1471    2.2676   21.9631 N   0  0  0  0  0  0
    7.0568    1.8644   21.1434 C   0  0  0  0  0  0
    7.1557    0.8821   20.1358 C   0  0  0  0  0  0
    6.1484    0.5266   19.3089 N   0  0  0  0  0  0
    4.9682    1.1519   19.4695 C   0  0  0  0  0  0
    4.7078    2.1359   20.4429 C   0  0  0  0  0  0
    3.4380    2.7469   20.5758 C   0  0  0  0  0  0
    3.2306    3.7126   21.5549 C   0  0  0  0  0  0
    4.2628    4.0896   22.4083 C   0  0  0  0  0  0
    5.5251    3.5085   22.2966 C   0  0  0  0  0  0
    5.7829    2.5093   21.3116 C   0  0  0  0  0  0
   11.6136    2.7942   22.1394 C   0  0  0  0  0  0
   12.4355    3.9691   22.6823 C   0  0  0  0  0  0
   11.5931    5.0954   22.9064 O   0  0  0  0  0  0
   10.4916    4.8531   23.7003 C   0  0  0  0  0  0
    9.9843    5.9765   24.3543 C   0  0  0  0  0  0
    8.8612    5.8626   25.1673 C   0  0  0  0  0  0
    8.2471    4.6248   25.3306 C   0  0  0  0  0  0
    6.8622    4.4672   26.3442 Cl  0  0  0  0  0  0
    8.7536    3.5064   24.6699 C   0  0  0  0  0  0
    9.8677    3.5902   23.8154 C   0  0  0  0  0  0
   10.2404   -1.1005   24.1302 N   0  0  0  0  0  0
   10.3899   -2.4998   23.6668 C   0  0  0  0  0  0
    9.0716   -2.9657   22.9983 C   0  0  0  0  0  0
    7.9048   -2.7412   23.8621 N   0  0  0  0  0  0
    6.6214   -3.2450   23.3384 C   0  0  2  0  0  0
    6.5436   -4.7358   23.0689 C   0  0  0  0  0  0
    5.2295   -4.8350   22.3088 C   0  0  0  0  0  0
    5.1974   -3.6532   21.5082 O   0  0  0  0  0  0
    6.0677   -2.6436   22.0328 C   0  0  0  0  0  0
    7.7910   -1.3256   24.2273 C   0  0  0  0  0  0
    9.0493   -0.8132   24.9586 C   0  0  0  0  0  0
   10.4554    1.4172   25.1083 H   0  0  0  0  0  0
   11.9828    1.6622   24.4649 H   0  0  0  0  0  0
    8.0017    3.1241   22.4772 H   0  0  0  0  0  0
    8.0602    0.3435   19.9194 H   0  0  0  0  0  0
    4.1859    0.8586   18.7857 H   0  0  0  0  0  0
    2.6378    2.4647   19.9083 H   0  0  0  0  0  0
    2.2626    4.1835   21.6464 H   0  0  0  0  0  0
    4.0862    4.8468   23.1564 H   0  0  0  0  0  0
    6.3067    3.8287   22.9651 H   0  0  0  0  0  0
   12.2751    1.9593   21.9095 H   0  0  0  0  0  0
   11.2350    3.1471   21.1823 H   0  0  0  0  0  0
   12.9420    3.6831   23.5987 H   0  0  0  0  0  0
   13.2120    4.2474   21.9681 H   0  0  0  0  0  0
   10.4630    6.9355   24.2262 H   0  0  0  0  0  0
    8.4673    6.7338   25.6703 H   0  0  0  0  0  0
    8.2642    2.5538   24.8173 H   0  0  0  0  0  0
   10.5963   -3.1410   24.5256 H   0  0  0  0  0  0
   11.2061   -2.6315   22.9528 H   0  0  0  0  0  0
    9.1567   -4.0256   22.7458 H   0  0  0  0  0  0
    8.9379   -2.4037   22.0713 H   0  0  0  0  0  0
    5.9024   -3.0435   24.1349 H   0  0  0  0  0  0
    6.5397   -5.3280   23.9836 H   0  0  0  0  0  0
    7.3588   -5.0923   22.4420 H   0  0  0  0  0  0
    4.3799   -4.8325   22.9934 H   0  0  0  0  0  0
    5.1765   -5.7347   21.6941 H   0  0  0  0  0  0
    6.8705   -2.4436   21.3220 H   0  0  0  0  0  0
    5.5254   -1.7212   22.2516 H   0  0  0  0  0  0
    7.6516   -0.7460   23.3121 H   0  0  0  0  0  0
    6.9147   -1.1652   24.8567 H   0  0  0  0  0  0
    8.8773    0.2394   25.1621 H   0  0  0  0  0  0
    9.1410   -1.3240   25.9167 H   0  0  0  0  0  0
  1  2  2  0  0  0
  2  3  1  0  0  0
  2 28  1  0  0  0
  3  4  1  0  0  0
  3 39  1  0  0  0
  3 40  1  0  0  0
  4 27  1  0  0  0
  4  5  1  0  0  0
  4 18  1  0  0  0
  5  6  2  0  0  0
  5  7  1  0  0  0
  7  8  1  0  0  0
  7 41  1  0  0  0
  8 17  2  0  0  0
  8  9  1  0  0  0
  9 10  2  0  0  0
  9 42  1  0  0  0
 10 11  1  0  0  0
 11 12  2  0  0  0
 11 43  1  0  0  0
 12 17  1  0  0  0
 12 13  1  0  0  0
 13 14  2  0  0  0
 13 44  1  0  0  0
 14 15  1  0  0  0
 14 45  1  0  0  0
 15 16  2  0  0  0
 15 46  1  0  0  0
 16 17  1  0  0  0
 16 47  1  0  0  0
 18 19  1  0  0  0
 18 48  1  0  0  0
 18 49  1  0  0  0
 19 20  1  0  0  0
 19 50  1  0  0  0
 19 51  1  0  0  0
 20 21  1  0  0  0
 21 27  2  0  0  0
 21 22  1  0  0  0
 22 23  2  0  0  0
 22 52  1  0  0  0
 23 24  1  0  0  0
 23 53  1  0  0  0
 24 25  1  0  0  0
 24 26  2  0  0  0
 26 27  1  0  0  0
 26 54  1  0  0  0
 28 38  1  0  0  0
 28 29  1  0  0  0
 29 30  1  0  0  0
 29 55  1  0  0  0
 29 56  1  0  0  0
 30 31  1  0  0  0
 30 57  1  0  0  0
 30 58  1  0  0  0
 31 32  1  0  0  0
 31 37  1  0  0  0
 32 36  1  0  0  0
 32 33  1  0  0  0
 32 59  1  0  0  0
 33 34  1  0  0  0
 33 60  1  0  0  0
 33 61  1  0  0  0
 34 35  1  0  0  0
 34 62  1  0  0  0
 34 63  1  0  0  0
 35 36  1  0  0  0
 36 64  1  0  0  0
 36 65  1  0  0  0
 37 38  1  0  0  0
 37 66  1  0  0  0
 37 67  1  0  0  0
 38 68  1  0  0  0
 38 69  1  0  0  0
M  END
> <r_i_docking_score>
-5.53063399579287

$$$$
ligprep_5.maegz:101
                    3D
 Schrodinger Suite 2020-4.
 69 74  0  0  1  0            999 V2000
   12.1662   -0.4406   23.1079 O   0  0  0  0  0  0
   11.1707   -0.1659   23.7840 C   0  0  0  0  0  0
   10.9897    1.3259   24.1679 C   0  0  0  0  0  0
   10.4446    2.3470   23.0802 C   0  0  2  0  0  0
    9.3619    1.6928   22.1237 C   0  0  0  0  0  0
    9.6730    0.6776   21.5079 O   0  0  0  0  0  0
    8.1471    2.2676   21.9631 N   0  0  0  0  0  0
    7.0568    1.8644   21.1434 C   0  0  0  0  0  0
    7.1557    0.8821   20.1358 C   0  0  0  0  0  0
    6.1484    0.5266   19.3089 N   0  0  0  0  0  0
    4.9682    1.1519   19.4695 C   0  0  0  0  0  0
    4.7078    2.1359   20.4429 C   0  0  0  0  0  0
    3.4380    2.7469   20.5758 C   0  0  0  0  0  0
    3.2306    3.7126   21.5549 C   0  0  0  0  0  0
    4.2628    4.0896   22.4083 C   0  0  0  0  0  0
    5.5251    3.5085   22.2966 C   0  0  0  0  0  0
    5.7829    2.5093   21.3116 C   0  0  0  0  0  0
   11.6136    2.7942   22.1394 C   0  0  0  0  0  0
   12.4355    3.9691   22.6823 C   0  0  0  0  0  0
   11.5931    5.0954   22.9064 O   0  0  0  0  0  0
   10.4916    4.8531   23.7003 C   0  0  0  0  0  0
    9.9843    5.9765   24.3543 C   0  0  0  0  0  0
    8.8612    5.8626   25.1673 C   0  0  0  0  0  0
    8.2471    4.6248   25.3306 C   0  0  0  0  0  0
    6.8622    4.4672   26.3442 Cl  0  0  0  0  0  0
    8.7536    3.5064   24.6699 C   0  0  0  0  0  0
    9.8677    3.5902   23.8154 C   0  0  0  0  0  0
   10.2404   -1.1005   24.1302 N   0  0  0  0  0  0
   10.3899   -2.4998   23.6668 C   0  0  0  0  0  0
    9.0716   -2.9657   22.9983 C   0  0  0  0  0  0
    7.9048   -2.7412   23.8621 N   0  0  0  0  0  0
    6.6214   -3.2450   23.3384 C   0  0  2  0  0  0
    6.5436   -4.7358   23.0689 C   0  0  0  0  0  0
    5.2295   -4.8350   22.3088 C   0  0  0  0  0  0
    5.1974   -3.6532   21.5082 O   0  0  0  0  0  0
    6.0677   -2.6436   22.0328 C   0  0  0  0  0  0
    7.7910   -1.3256   24.2273 C   0  0  0  0  0  0
    9.0493   -0.8132   24.9586 C   0  0  0  0  0  0
   10.4554    1.4172   25.1083 H   0  0  0  0  0  0
   11.9828    1.6622   24.4649 H   0  0  0  0  0  0
    8.0017    3.1241   22.4772 H   0  0  0  0  0  0
    8.0602    0.3435   19.9194 H   0  0  0  0  0  0
    4.1859    0.8586   18.7857 H   0  0  0  0  0  0
    2.6378    2.4647   19.9083 H   0  0  0  0  0  0
    2.2626    4.1835   21.6464 H   0  0  0  0  0  0
    4.0862    4.8468   23.1564 H   0  0  0  0  0  0
    6.3067    3.8287   22.9651 H   0  0  0  0  0  0
   12.2751    1.9593   21.9095 H   0  0  0  0  0  0
   11.2350    3.1471   21.1823 H   0  0  0  0  0  0
   12.9420    3.6831   23.5987 H   0  0  0  0  0  0
   13.2120    4.2474   21.9681 H   0  0  0  0  0  0
   10.4630    6.9355   24.2262 H   0  0  0  0  0  0
    8.4673    6.7338   25.6703 H   0  0  0  0  0  0
    8.2642    2.5538   24.8173 H   0  0  0  0  0  0
   10.5963   -3.1410   24.5256 H   0  0  0  0  0  0
   11.2061   -2.6315   22.9528 H   0  0  0  0  0  0
    9.1567   -4.0256   22.7458 H   0  0  0  0  0  0
    8.9379   -2.4037   22.0713 H   0  0  0  0  0  0
    5.9024   -3.0435   24.1349 H   0  0  0  0  0  0
    6.5397   -5.3280   23.9836 H   0  0  0  0  0  0
    7.3588   -5.0923   22.4420 H   0  0  0  0  0  0
    4.3799   -4.8325   22.9934 H   0  0  0  0  0  0
    5.1765   -5.7347   21.6941 H   0  0  0  0  0  0
    6.8705   -2.4436   21.3220 H   0  0  0  0  0  0
    5.5254   -1.7212   22.2516 H   0  0  0  0  0  0
    7.6516   -0.7460   23.3121 H   0  0  0  0  0  0
    6.9147   -1.1652   24.8567 H   0  0  0  0  0  0
    8.8773    0.2394   25.1621 H   0  0  0  0  0  0
    9.1410   -1.3240   25.9167 H   0  0  0  0  0  0
  1  2  2  0  0  0
  2  3  1  0  0  0
  2 28  1  0  0  0
  3  4  1  0  0  0
  3 39  1  0  0  0
  3 40  1  0  0  0
  4 27  1  0  0  0
  4  5  1  0  0  0
  4 18  1  0  0  0
  5  6  2  0  0  0
  5  7  1  0  0  0
  7  8  1  0  0  0
  7 41  1  0  0  0
  8 17  2  0  0  0
  8  9  1  0  0  0
  9 10  2  0  0  0
  9 42  1  0  0  0
 10 11  1  0  0  0
 11 12  2  0  0  0
 11 43  1  0  0  0
 12 17  1  0  0  0
 12 13  1  0  0  0
 13 14  2  0  0  0
 13 44  1  0  0  0
 14 15  1  0  0  0
 14 45  1  0  0  0
 15 16  2  0  0  0
 15 46  1  0  0  0
 16 17  1  0  0  0
 16 47  1  0  0  0
 18 19  1  0  0  0
 18 48  1  0  0  0
 18 49  1  0  0  0
 19 20  1  0  0  0
 19 50  1  0  0  0
 19 51  1  0  0  0
 20 21  1  0  0  0
 21 27  2  0  0  0
 21 22  1  0  0  0
 22 23  2  0  0  0
 22 52  1  0  0  0
 23 24  1  0  0  0
 23 53  1  0  0  0
 24 25  1  0  0  0
 24 26  2  0  0  0
 26 27  1  0  0  0
 26 54  1  0  0  0
 28 38  1  0  0  0
 28 29  1  0  0  0
 29 30  1  0  0  0
 29 55  1  0  0  0
 29 56  1  0  0  0
 30 31  1  0  0  0
 30 57  1  0  0  0
 30 58  1  0  0  0
 31 32  1  0  0  0
 31 37  1  0  0  0
 32 36  1  0  0  0
 32 33  1  0  0  0
 32 59  1  0  0  0
 33 34  1  0  0  0
 33 60  1  0  0  0
 33 61  1  0  0  0
 34 35  1  0  0  0
 34 62  1  0  0  0
 34 63  1  0  0  0
 35 36  1  0  0  0
 36 64  1  0  0  0
 36 65  1  0  0  0
 37 38  1  0  0  0
 37 66  1  0  0  0
 37 67  1  0  0  0
 38 68  1  0  0  0
 38 69  1  0  0  0
M  END
> <r_i_docking_score>
-5.53063399579287

$$$$
ligprep_5.maegz:102
                    3D
 Schrodinger Suite 2020-4.
 39 42  0  0  1  0            999 V2000
   13.5608    3.6226   22.5190 O   0  0  0  0  0  0
   12.6857    2.7789   22.7075 C   0  0  0  0  0  0
   11.1871    3.1122   22.8721 C   0  0  0  0  0  0
   10.4431    2.0973   23.8043 C   0  0  1  0  0  0
    8.9292    2.4135   23.7360 C   0  0  0  0  0  0
    8.3878    2.9376   24.7076 O   0  0  0  0  0  0
    8.3059    2.0848   22.5799 N   0  0  0  0  0  0
    6.9831    2.3215   22.1483 C   0  0  0  0  0  0
    6.1010    3.1966   22.8085 C   0  0  0  0  0  0
    4.8642    3.5092   22.3587 N   0  0  0  0  0  0
    4.4690    2.9599   21.1911 C   0  0  0  0  0  0
    5.2430    2.0663   20.4213 C   0  0  0  0  0  0
    4.7952    1.5449   19.1833 C   0  0  0  0  0  0
    5.5985    0.6678   18.4645 C   0  0  0  0  0  0
    6.8353    0.2736   18.9642 C   0  0  0  0  0  0
    7.3061    0.7761   20.1742 C   0  0  0  0  0  0
    6.5332    1.7077   20.9281 C   0  0  0  0  0  0
   10.7531    0.6416   23.4065 C   0  0  0  0  0  0
    9.9168   -0.4567   23.6728 C   0  0  0  0  0  0
   10.2821   -1.7470   23.3037 C   0  0  0  0  0  0
    9.2061   -3.0655   23.5971 Cl  0  0  0  0  0  0
   11.5167   -1.9707   22.7060 C   0  0  0  0  0  0
   12.3987   -0.9116   22.4988 C   0  0  0  0  0  0
   13.9436   -1.2538   21.8022 Cl  0  0  0  0  0  0
   12.0292    0.3903   22.8716 C   0  0  0  0  0  0
   12.9289    1.4532   22.6969 N   0  0  0  0  0  0
   11.1132    4.1395   23.2318 H   0  0  0  0  0  0
   10.8242    3.0586   21.8458 H   0  0  0  0  0  0
   10.7318    2.2446   24.8470 H   0  0  0  0  0  0
    8.8814    1.5996   21.9110 H   0  0  0  0  0  0
    6.3778    3.7112   23.7120 H   0  0  0  0  0  0
    3.4989    3.2657   20.8325 H   0  0  0  0  0  0
    3.8330    1.8451   18.7928 H   0  0  0  0  0  0
    5.2578    0.2844   17.5122 H   0  0  0  0  0  0
    7.4384   -0.4215   18.3963 H   0  0  0  0  0  0
    8.2743    0.4577   20.5309 H   0  0  0  0  0  0
    8.9590   -0.3066   24.1539 H   0  0  0  0  0  0
   11.8001   -2.9704   22.4166 H   0  0  0  0  0  0
   13.8988    1.2379   22.5324 H   0  0  0  0  0  0
  1  2  2  0  0  0
  2 26  1  0  0  0
  2  3  1  0  0  0
  3  4  1  0  0  0
  3 27  1  0  0  0
  3 28  1  0  0  0
  4  5  1  0  0  0
  4 18  1  0  0  0
  4 29  1  0  0  0
  5  6  2  0  0  0
  5  7  1  0  0  0
  7  8  1  0  0  0
  7 30  1  0  0  0
  8 17  2  0  0  0
  8  9  1  0  0  0
  9 10  2  0  0  0
  9 31  1  0  0  0
 10 11  1  0  0  0
 11 12  2  0  0  0
 11 32  1  0  0  0
 12 17  1  0  0  0
 12 13  1  0  0  0
 13 14  2  0  0  0
 13 33  1  0  0  0
 14 15  1  0  0  0
 14 34  1  0  0  0
 15 16  2  0  0  0
 15 35  1  0  0  0
 16 17  1  0  0  0
 16 36  1  0  0  0
 18 25  2  0  0  0
 18 19  1  0  0  0
 19 20  2  0  0  0
 19 37  1  0  0  0
 20 21  1  0  0  0
 20 22  1  0  0  0
 22 23  2  0  0  0
 22 38  1  0  0  0
 23 24  1  0  0  0
 23 25  1  0  0  0
 25 26  1  0  0  0
 26 39  1  0  0  0
M  END
> <r_i_docking_score>
-6.30561403304473

$$$$
ligprep_5.maegz:103
                    3D
 Schrodinger Suite 2020-4.
 43 46  0  0  1  0            999 V2000
    3.0186    3.3358   23.1000 C   0  0  0  0  0  0
    4.3527    2.7632   22.8325 N   0  0  0  0  0  0
    5.2143    2.7252   23.8893 C   0  0  0  0  0  0
    4.9654    3.1016   25.0368 O   0  0  0  0  0  0
    6.6081    2.1846   23.5144 C   0  0  0  0  0  0
    6.5840    1.0698   22.4240 C   0  0  2  0  0  0
    6.0489   -0.1360   22.9611 O   0  0  0  0  0  0
    8.0922    0.8282   22.0510 C   0  0  0  0  0  0
    8.6070    1.4450   21.1095 O   0  0  0  0  0  0
    8.7982   -0.0303   22.8249 N   0  0  0  0  0  0
   10.1784   -0.2920   22.7168 C   0  0  0  0  0  0
   10.5788   -1.6259   22.6000 C   0  0  0  0  0  0
   11.8618   -2.0141   22.4025 N   0  0  0  0  0  0
   12.7993   -1.0484   22.3079 C   0  0  0  0  0  0
   12.5429    0.3350   22.4487 C   0  0  0  0  0  0
   13.5542    1.3161   22.3091 C   0  0  0  0  0  0
   13.2358    2.6666   22.4295 C   0  0  0  0  0  0
   11.9439    3.0648   22.7417 C   0  0  0  0  0  0
   10.9354    2.1206   22.8977 C   0  0  0  0  0  0
   11.1916    0.7328   22.7026 C   0  0  0  0  0  0
    5.7452    1.5404   21.2222 C   0  0  0  0  0  0
    5.9617    1.1102   19.9027 C   0  0  0  0  0  0
    5.1704    1.5679   18.8574 C   0  0  0  0  0  0
    5.5740    1.1467   17.2433 Cl  0  0  0  0  0  0
    4.0957    2.4019   19.1188 C   0  0  0  0  0  0
    3.8221    2.7910   20.4238 C   0  0  0  0  0  0
    4.6484    2.3898   21.4885 C   0  0  0  0  0  0
    2.7822    3.4484   24.1603 H   0  0  0  0  0  0
    2.9410    4.3235   22.6435 H   0  0  0  0  0  0
    2.2454    2.6965   22.6713 H   0  0  0  0  0  0
    7.1731    3.0556   23.1794 H   0  0  0  0  0  0
    7.0852    1.8321   24.4314 H   0  0  0  0  0  0
    5.0817   -0.0553   22.9336 H   0  0  0  0  0  0
    8.2493   -0.6382   23.4163 H   0  0  0  0  0  0
    9.8563   -2.4288   22.6158 H   0  0  0  0  0  0
   13.8078   -1.3882   22.1151 H   0  0  0  0  0  0
   14.5684    1.0158   22.0831 H   0  0  0  0  0  0
   14.0101    3.4107   22.3067 H   0  0  0  0  0  0
   11.7156    4.1144   22.8522 H   0  0  0  0  0  0
    9.9398    2.4611   23.1379 H   0  0  0  0  0  0
    6.7750    0.4396   19.6654 H   0  0  0  0  0  0
    3.4911    2.7867   18.3114 H   0  0  0  0  0  0
    2.9806    3.4504   20.5721 H   0  0  0  0  0  0
  1  2  1  0  0  0
  1 28  1  0  0  0
  1 29  1  0  0  0
  1 30  1  0  0  0
  2 27  1  0  0  0
  2  3  1  0  0  0
  3  4  2  0  0  0
  3  5  1  0  0  0
  5  6  1  0  0  0
  5 31  1  0  0  0
  5 32  1  0  0  0
  6  7  1  0  0  0
  6  8  1  0  0  0
  6 21  1  0  0  0
  7 33  1  0  0  0
  8  9  2  0  0  0
  8 10  1  0  0  0
 10 11  1  0  0  0
 10 34  1  0  0  0
 11 20  2  0  0  0
 11 12  1  0  0  0
 12 13  2  0  0  0
 12 35  1  0  0  0
 13 14  1  0  0  0
 14 15  2  0  0  0
 14 36  1  0  0  0
 15 20  1  0  0  0
 15 16  1  0  0  0
 16 17  2  0  0  0
 16 37  1  0  0  0
 17 18  1  0  0  0
 17 38  1  0  0  0
 18 19  2  0  0  0
 18 39  1  0  0  0
 19 20  1  0  0  0
 19 40  1  0  0  0
 21 27  2  0  0  0
 21 22  1  0  0  0
 22 23  2  0  0  0
 22 41  1  0  0  0
 23 24  1  0  0  0
 23 25  1  0  0  0
 25 26  2  0  0  0
 25 42  1  0  0  0
 26 27  1  0  0  0
 26 43  1  0  0  0
M  END
> <r_i_docking_score>
-6.42133669622974

$$$$
ligprep_5.maegz:104
                    3D
 Schrodinger Suite 2020-4.
 52 55  0  0  1  0            999 V2000
    6.4088    0.6649   26.8110 C   0  0  0  0  0  0
    5.5927   -0.4281   26.2708 N   0  0  0  0  0  0
    4.4989   -0.8197   27.1648 C   0  0  0  0  0  0
    5.7932   -1.0332   25.0699 C   0  0  0  0  0  0
    5.0681   -1.9484   24.6763 O   0  0  0  0  0  0
    6.9765   -0.5617   24.1874 C   0  0  0  0  0  0
    7.2367   -1.2843   22.8078 C   0  0  2  0  0  0
    8.6152   -0.7202   22.3063 C   0  0  0  0  0  0
    8.6599    0.0900   21.3744 O   0  0  0  0  0  0
    9.7306   -1.1031   22.9674 N   0  0  0  0  0  0
   11.0040   -0.5435   22.7831 C   0  0  0  0  0  0
   12.0445   -1.4057   22.4267 C   0  0  0  0  0  0
   13.3127   -0.9959   22.1935 N   0  0  0  0  0  0
   13.5696    0.3259   22.3079 C   0  0  0  0  0  0
   12.6219    1.3046   22.6685 C   0  0  0  0  0  0
   12.9389    2.6834   22.7203 C   0  0  0  0  0  0
   11.9722    3.6065   23.1054 C   0  0  0  0  0  0
   10.6903    3.1853   23.4380 C   0  0  0  0  0  0
   10.3449    1.8379   23.3673 C   0  0  0  0  0  0
   11.2933    0.8596   22.9479 C   0  0  0  0  0  0
    6.1230   -0.9099   21.7857 C   0  0  0  0  0  0
    6.1737   -1.7708   20.5164 C   0  0  0  0  0  0
    5.9402   -3.1368   20.8627 O   0  0  0  0  0  0
    6.6973   -3.6350   21.9079 C   0  0  0  0  0  0
    6.7379   -5.0269   21.9745 C   0  0  0  0  0  0
    7.3793   -5.6529   23.0374 C   0  0  0  0  0  0
    7.9697   -4.8874   24.0390 C   0  0  0  0  0  0
    8.7692   -5.6529   25.3638 Cl  0  0  0  0  0  0
    7.9445   -3.4974   23.9607 C   0  0  0  0  0  0
    7.3106   -2.8312   22.8984 C   0  0  0  0  0  0
    7.2341    0.9733   26.1704 H   0  0  0  0  0  0
    5.7859    1.5442   26.9810 H   0  0  0  0  0  0
    6.8374    0.3723   27.7711 H   0  0  0  0  0  0
    4.8957   -1.1341   28.1305 H   0  0  0  0  0  0
    3.8304    0.0248   27.3342 H   0  0  0  0  0  0
    3.8973   -1.6421   26.7749 H   0  0  0  0  0  0
    7.8594   -0.6455   24.8226 H   0  0  0  0  0  0
    6.8258    0.5026   23.9975 H   0  0  0  0  0  0
    9.6811   -1.9576   23.4996 H   0  0  0  0  0  0
   11.8654   -2.4637   22.2898 H   0  0  0  0  0  0
   14.5752    0.6392   22.0734 H   0  0  0  0  0  0
   13.9397    3.0119   22.4770 H   0  0  0  0  0  0
   12.2185    4.6574   23.1495 H   0  0  0  0  0  0
    9.9500    3.9131   23.7375 H   0  0  0  0  0  0
    9.3383    1.5430   23.6191 H   0  0  0  0  0  0
    6.1138    0.1537   21.5400 H   0  0  0  0  0  0
    5.1696   -1.1165   22.2495 H   0  0  0  0  0  0
    7.1378   -1.6529   20.0207 H   0  0  0  0  0  0
    5.4106   -1.4491   19.8072 H   0  0  0  0  0  0
    6.2589   -5.6208   21.2105 H   0  0  0  0  0  0
    7.4126   -6.7306   23.0836 H   0  0  0  0  0  0
    8.4077   -2.9332   24.7559 H   0  0  0  0  0  0
  1  2  1  0  0  0
  1 31  1  0  0  0
  1 32  1  0  0  0
  1 33  1  0  0  0
  2  3  1  0  0  0
  2  4  1  0  0  0
  3 34  1  0  0  0
  3 35  1  0  0  0
  3 36  1  0  0  0
  4  5  2  0  0  0
  4  6  1  0  0  0
  6  7  1  0  0  0
  6 37  1  0  0  0
  6 38  1  0  0  0
  7 30  1  0  0  0
  7  8  1  0  0  0
  7 21  1  0  0  0
  8  9  2  0  0  0
  8 10  1  0  0  0
 10 11  1  0  0  0
 10 39  1  0  0  0
 11 20  2  0  0  0
 11 12  1  0  0  0
 12 13  2  0  0  0
 12 40  1  0  0  0
 13 14  1  0  0  0
 14 15  2  0  0  0
 14 41  1  0  0  0
 15 20  1  0  0  0
 15 16  1  0  0  0
 16 17  2  0  0  0
 16 42  1  0  0  0
 17 18  1  0  0  0
 17 43  1  0  0  0
 18 19  2  0  0  0
 18 44  1  0  0  0
 19 20  1  0  0  0
 19 45  1  0  0  0
 21 22  1  0  0  0
 21 46  1  0  0  0
 21 47  1  0  0  0
 22 23  1  0  0  0
 22 48  1  0  0  0
 22 49  1  0  0  0
 23 24  1  0  0  0
 24 30  2  0  0  0
 24 25  1  0  0  0
 25 26  2  0  0  0
 25 50  1  0  0  0
 26 27  1  0  0  0
 26 51  1  0  0  0
 27 28  1  0  0  0
 27 29  2  0  0  0
 29 30  1  0  0  0
 29 52  1  0  0  0
M  END
> <r_i_docking_score>
-6.33879642498476

$$$$
ligprep_5.maegz:105
                    3D
 Schrodinger Suite 2020-4.
 52 55  0  0  1  0            999 V2000
    6.4088    0.6649   26.8110 C   0  0  0  0  0  0
    5.5927   -0.4281   26.2708 N   0  0  0  0  0  0
    4.4989   -0.8197   27.1648 C   0  0  0  0  0  0
    5.7932   -1.0332   25.0699 C   0  0  0  0  0  0
    5.0681   -1.9484   24.6763 O   0  0  0  0  0  0
    6.9765   -0.5617   24.1874 C   0  0  0  0  0  0
    7.2367   -1.2843   22.8078 C   0  0  2  0  0  0
    8.6152   -0.7202   22.3063 C   0  0  0  0  0  0
    8.6599    0.0900   21.3744 O   0  0  0  0  0  0
    9.7306   -1.1031   22.9674 N   0  0  0  0  0  0
   11.0040   -0.5435   22.7831 C   0  0  0  0  0  0
   12.0445   -1.4057   22.4267 C   0  0  0  0  0  0
   13.3127   -0.9959   22.1935 N   0  0  0  0  0  0
   13.5696    0.3259   22.3079 C   0  0  0  0  0  0
   12.6219    1.3046   22.6685 C   0  0  0  0  0  0
   12.9389    2.6834   22.7203 C   0  0  0  0  0  0
   11.9722    3.6065   23.1054 C   0  0  0  0  0  0
   10.6903    3.1853   23.4380 C   0  0  0  0  0  0
   10.3449    1.8379   23.3673 C   0  0  0  0  0  0
   11.2933    0.8596   22.9479 C   0  0  0  0  0  0
    6.1230   -0.9099   21.7857 C   0  0  0  0  0  0
    6.1737   -1.7708   20.5164 C   0  0  0  0  0  0
    5.9402   -3.1368   20.8627 O   0  0  0  0  0  0
    6.6973   -3.6350   21.9079 C   0  0  0  0  0  0
    6.7379   -5.0269   21.9745 C   0  0  0  0  0  0
    7.3793   -5.6529   23.0374 C   0  0  0  0  0  0
    7.9697   -4.8874   24.0390 C   0  0  0  0  0  0
    8.7692   -5.6529   25.3638 Cl  0  0  0  0  0  0
    7.9445   -3.4974   23.9607 C   0  0  0  0  0  0
    7.3106   -2.8312   22.8984 C   0  0  0  0  0  0
    7.2341    0.9733   26.1704 H   0  0  0  0  0  0
    5.7859    1.5442   26.9810 H   0  0  0  0  0  0
    6.8374    0.3723   27.7711 H   0  0  0  0  0  0
    4.8957   -1.1341   28.1305 H   0  0  0  0  0  0
    3.8304    0.0248   27.3342 H   0  0  0  0  0  0
    3.8973   -1.6421   26.7749 H   0  0  0  0  0  0
    7.8594   -0.6455   24.8226 H   0  0  0  0  0  0
    6.8258    0.5026   23.9975 H   0  0  0  0  0  0
    9.6811   -1.9576   23.4996 H   0  0  0  0  0  0
   11.8654   -2.4637   22.2898 H   0  0  0  0  0  0
   14.5752    0.6392   22.0734 H   0  0  0  0  0  0
   13.9397    3.0119   22.4770 H   0  0  0  0  0  0
   12.2185    4.6574   23.1495 H   0  0  0  0  0  0
    9.9500    3.9131   23.7375 H   0  0  0  0  0  0
    9.3383    1.5430   23.6191 H   0  0  0  0  0  0
    6.1138    0.1537   21.5400 H   0  0  0  0  0  0
    5.1696   -1.1165   22.2495 H   0  0  0  0  0  0
    7.1378   -1.6529   20.0207 H   0  0  0  0  0  0
    5.4106   -1.4491   19.8072 H   0  0  0  0  0  0
    6.2589   -5.6208   21.2105 H   0  0  0  0  0  0
    7.4126   -6.7306   23.0836 H   0  0  0  0  0  0
    8.4077   -2.9332   24.7559 H   0  0  0  0  0  0
  1  2  1  0  0  0
  1 31  1  0  0  0
  1 32  1  0  0  0
  1 33  1  0  0  0
  2  3  1  0  0  0
  2  4  1  0  0  0
  3 34  1  0  0  0
  3 35  1  0  0  0
  3 36  1  0  0  0
  4  5  2  0  0  0
  4  6  1  0  0  0
  6  7  1  0  0  0
  6 37  1  0  0  0
  6 38  1  0  0  0
  7 30  1  0  0  0
  7  8  1  0  0  0
  7 21  1  0  0  0
  8  9  2  0  0  0
  8 10  1  0  0  0
 10 11  1  0  0  0
 10 39  1  0  0  0
 11 20  2  0  0  0
 11 12  1  0  0  0
 12 13  2  0  0  0
 12 40  1  0  0  0
 13 14  1  0  0  0
 14 15  2  0  0  0
 14 41  1  0  0  0
 15 20  1  0  0  0
 15 16  1  0  0  0
 16 17  2  0  0  0
 16 42  1  0  0  0
 17 18  1  0  0  0
 17 43  1  0  0  0
 18 19  2  0  0  0
 18 44  1  0  0  0
 19 20  1  0  0  0
 19 45  1  0  0  0
 21 22  1  0  0  0
 21 46  1  0  0  0
 21 47  1  0  0  0
 22 23  1  0  0  0
 22 48  1  0  0  0
 22 49  1  0  0  0
 23 24  1  0  0  0
 24 30  2  0  0  0
 24 25  1  0  0  0
 25 26  2  0  0  0
 25 50  1  0  0  0
 26 27  1  0  0  0
 26 51  1  0  0  0
 27 28  1  0  0  0
 27 29  2  0  0  0
 29 30  1  0  0  0
 29 52  1  0  0  0
M  END
> <r_i_docking_score>
-6.33879642498476

$$$$
ligprep_5.maegz:106
                    3D
 Schrodinger Suite 2020-4.
 49 52  0  0  1  0            999 V2000
    9.1938   -5.3905   25.5081 C   0  0  0  0  0  0
    9.5699   -4.0149   25.1995 N   0  0  0  0  0  0
    8.7117   -3.0649   24.7916 C   0  0  0  0  0  0
    7.5162   -3.2869   24.6208 O   0  0  0  0  0  0
    9.2871   -1.6466   24.5546 C   0  0  0  0  0  0
    9.5515   -1.1781   23.0668 C   0  0  2  0  0  0
    8.2051   -0.7348   22.3853 C   0  0  0  0  0  0
    7.1250   -0.9045   22.9531 O   0  0  0  0  0  0
    8.2883   -0.1482   21.1683 N   0  0  0  0  0  0
    7.2130    0.3786   20.4326 C   0  0  0  0  0  0
    7.0524   -0.0814   19.1235 C   0  0  0  0  0  0
    6.0469    0.2988   18.3076 N   0  0  0  0  0  0
    5.1673    1.2056   18.7791 C   0  0  0  0  0  0
    5.2248    1.7848   20.0626 C   0  0  0  0  0  0
    4.2837    2.7466   20.4988 C   0  0  0  0  0  0
    4.4013    3.3136   21.7629 C   0  0  0  0  0  0
    5.4433    2.9451   22.6056 C   0  0  0  0  0  0
    6.3801    1.9974   22.2007 C   0  0  0  0  0  0
    6.2899    1.3738   20.9247 C   0  0  0  0  0  0
   10.1954   -2.2975   22.1873 C   0  0  0  0  0  0
   11.6903   -2.4527   22.5112 C   0  0  0  0  0  0
   12.4014   -1.2621   22.2007 O   0  0  0  0  0  0
   11.8641   -0.0969   22.7033 C   0  0  0  0  0  0
   12.7489    0.9814   22.7082 C   0  0  0  0  0  0
   12.3101    2.2399   23.1057 C   0  0  0  0  0  0
   10.9921    2.4132   23.5156 C   0  0  0  0  0  0
   10.4339    3.9801   23.9700 Cl  0  0  0  0  0  0
   10.1172    1.3253   23.5336 C   0  0  0  0  0  0
   10.5114    0.0479   23.0932 C   0  0  0  0  0  0
   10.0680   -5.9585   25.8282 H   0  0  0  0  0  0
    8.4608   -5.4215   26.3141 H   0  0  0  0  0  0
    8.7673   -5.8858   24.6350 H   0  0  0  0  0  0
   10.5472   -3.7838   25.3019 H   0  0  0  0  0  0
   10.2204   -1.5676   25.1069 H   0  0  0  0  0  0
    8.6330   -0.9392   25.0680 H   0  0  0  0  0  0
    9.1654   -0.2566   20.6791 H   0  0  0  0  0  0
    7.7257   -0.8158   18.7037 H   0  0  0  0  0  0
    4.3744    1.4928   18.1048 H   0  0  0  0  0  0
    3.4941    3.0625   19.8307 H   0  0  0  0  0  0
    3.6920    4.0649   22.0798 H   0  0  0  0  0  0
    5.5283    3.4061   23.5795 H   0  0  0  0  0  0
    7.1788    1.7394   22.8755 H   0  0  0  0  0  0
   10.1226   -2.0749   21.1208 H   0  0  0  0  0  0
    9.6803   -3.2526   22.3079 H   0  0  0  0  0  0
   12.1253   -3.2528   21.9220 H   0  0  0  0  0  0
   11.8305   -2.7098   23.5630 H   0  0  0  0  0  0
   13.7671    0.8471   22.3771 H   0  0  0  0  0  0
   12.9908    3.0785   23.0913 H   0  0  0  0  0  0
    9.1083    1.4852   23.8792 H   0  0  0  0  0  0
  1  2  1  0  0  0
  1 30  1  0  0  0
  1 31  1  0  0  0
  1 32  1  0  0  0
  2  3  1  0  0  0
  2 33  1  0  0  0
  3  4  2  0  0  0
  3  5  1  0  0  0
  5  6  1  0  0  0
  5 34  1  0  0  0
  5 35  1  0  0  0
  6 29  1  0  0  0
  6  7  1  0  0  0
  6 20  1  0  0  0
  7  8  2  0  0  0
  7  9  1  0  0  0
  9 10  1  0  0  0
  9 36  1  0  0  0
 10 19  2  0  0  0
 10 11  1  0  0  0
 11 12  2  0  0  0
 11 37  1  0  0  0
 12 13  1  0  0  0
 13 14  2  0  0  0
 13 38  1  0  0  0
 14 19  1  0  0  0
 14 15  1  0  0  0
 15 16  2  0  0  0
 15 39  1  0  0  0
 16 17  1  0  0  0
 16 40  1  0  0  0
 17 18  2  0  0  0
 17 41  1  0  0  0
 18 19  1  0  0  0
 18 42  1  0  0  0
 20 21  1  0  0  0
 20 43  1  0  0  0
 20 44  1  0  0  0
 21 22  1  0  0  0
 21 45  1  0  0  0
 21 46  1  0  0  0
 22 23  1  0  0  0
 23 29  2  0  0  0
 23 24  1  0  0  0
 24 25  2  0  0  0
 24 47  1  0  0  0
 25 26  1  0  0  0
 25 48  1  0  0  0
 26 27  1  0  0  0
 26 28  2  0  0  0
 28 29  1  0  0  0
 28 49  1  0  0  0
M  END
> <r_i_docking_score>
-5.98731158374239

$$$$
ligprep_5.maegz:107
                    3D
 Schrodinger Suite 2020-4.
 49 52  0  0  1  0            999 V2000
    9.1938   -5.3905   25.5081 C   0  0  0  0  0  0
    9.5699   -4.0149   25.1995 N   0  0  0  0  0  0
    8.7117   -3.0649   24.7916 C   0  0  0  0  0  0
    7.5162   -3.2869   24.6208 O   0  0  0  0  0  0
    9.2871   -1.6466   24.5546 C   0  0  0  0  0  0
    9.5515   -1.1781   23.0668 C   0  0  2  0  0  0
    8.2051   -0.7348   22.3853 C   0  0  0  0  0  0
    7.1250   -0.9045   22.9531 O   0  0  0  0  0  0
    8.2883   -0.1482   21.1683 N   0  0  0  0  0  0
    7.2130    0.3786   20.4326 C   0  0  0  0  0  0
    7.0524   -0.0814   19.1235 C   0  0  0  0  0  0
    6.0469    0.2988   18.3076 N   0  0  0  0  0  0
    5.1673    1.2056   18.7791 C   0  0  0  0  0  0
    5.2248    1.7848   20.0626 C   0  0  0  0  0  0
    4.2837    2.7466   20.4988 C   0  0  0  0  0  0
    4.4013    3.3136   21.7629 C   0  0  0  0  0  0
    5.4433    2.9451   22.6056 C   0  0  0  0  0  0
    6.3801    1.9974   22.2007 C   0  0  0  0  0  0
    6.2899    1.3738   20.9247 C   0  0  0  0  0  0
   10.1954   -2.2975   22.1873 C   0  0  0  0  0  0
   11.6903   -2.4527   22.5112 C   0  0  0  0  0  0
   12.4014   -1.2621   22.2007 O   0  0  0  0  0  0
   11.8641   -0.0969   22.7033 C   0  0  0  0  0  0
   12.7489    0.9814   22.7082 C   0  0  0  0  0  0
   12.3101    2.2399   23.1057 C   0  0  0  0  0  0
   10.9921    2.4132   23.5156 C   0  0  0  0  0  0
   10.4339    3.9801   23.9700 Cl  0  0  0  0  0  0
   10.1172    1.3253   23.5336 C   0  0  0  0  0  0
   10.5114    0.0479   23.0932 C   0  0  0  0  0  0
   10.0680   -5.9585   25.8282 H   0  0  0  0  0  0
    8.4608   -5.4215   26.3141 H   0  0  0  0  0  0
    8.7673   -5.8858   24.6350 H   0  0  0  0  0  0
   10.5472   -3.7838   25.3019 H   0  0  0  0  0  0
   10.2204   -1.5676   25.1069 H   0  0  0  0  0  0
    8.6330   -0.9392   25.0680 H   0  0  0  0  0  0
    9.1654   -0.2566   20.6791 H   0  0  0  0  0  0
    7.7257   -0.8158   18.7037 H   0  0  0  0  0  0
    4.3744    1.4928   18.1048 H   0  0  0  0  0  0
    3.4941    3.0625   19.8307 H   0  0  0  0  0  0
    3.6920    4.0649   22.0798 H   0  0  0  0  0  0
    5.5283    3.4061   23.5795 H   0  0  0  0  0  0
    7.1788    1.7394   22.8755 H   0  0  0  0  0  0
   10.1226   -2.0749   21.1208 H   0  0  0  0  0  0
    9.6803   -3.2526   22.3079 H   0  0  0  0  0  0
   12.1253   -3.2528   21.9220 H   0  0  0  0  0  0
   11.8305   -2.7098   23.5630 H   0  0  0  0  0  0
   13.7671    0.8471   22.3771 H   0  0  0  0  0  0
   12.9908    3.0785   23.0913 H   0  0  0  0  0  0
    9.1083    1.4852   23.8792 H   0  0  0  0  0  0
  1  2  1  0  0  0
  1 30  1  0  0  0
  1 31  1  0  0  0
  1 32  1  0  0  0
  2  3  1  0  0  0
  2 33  1  0  0  0
  3  4  2  0  0  0
  3  5  1  0  0  0
  5  6  1  0  0  0
  5 34  1  0  0  0
  5 35  1  0  0  0
  6 29  1  0  0  0
  6  7  1  0  0  0
  6 20  1  0  0  0
  7  8  2  0  0  0
  7  9  1  0  0  0
  9 10  1  0  0  0
  9 36  1  0  0  0
 10 19  2  0  0  0
 10 11  1  0  0  0
 11 12  2  0  0  0
 11 37  1  0  0  0
 12 13  1  0  0  0
 13 14  2  0  0  0
 13 38  1  0  0  0
 14 19  1  0  0  0
 14 15  1  0  0  0
 15 16  2  0  0  0
 15 39  1  0  0  0
 16 17  1  0  0  0
 16 40  1  0  0  0
 17 18  2  0  0  0
 17 41  1  0  0  0
 18 19  1  0  0  0
 18 42  1  0  0  0
 20 21  1  0  0  0
 20 43  1  0  0  0
 20 44  1  0  0  0
 21 22  1  0  0  0
 21 45  1  0  0  0
 21 46  1  0  0  0
 22 23  1  0  0  0
 23 29  2  0  0  0
 23 24  1  0  0  0
 24 25  2  0  0  0
 24 47  1  0  0  0
 25 26  1  0  0  0
 25 48  1  0  0  0
 26 27  1  0  0  0
 26 28  2  0  0  0
 28 29  1  0  0  0
 28 49  1  0  0  0
M  END
> <r_i_docking_score>
-5.98731158374239

$$$$
ligprep_5.maegz:108
                    3D
 Schrodinger Suite 2020-4.
 43 46  0  0  1  0            999 V2000
    9.9833    5.4166   23.9049 C   0  0  0  0  0  0
    9.7643    4.0196   24.0771 O   0  0  0  0  0  0
   10.7195    3.1302   23.6278 C   0  0  0  0  0  0
   11.9661    3.5042   23.1092 C   0  0  0  0  0  0
   12.8830    2.5482   22.6914 C   0  0  0  0  0  0
   12.5532    1.1764   22.7505 C   0  0  0  0  0  0
   13.4327    0.1717   22.3079 C   0  0  0  0  0  0
   13.1367   -1.1432   22.2560 N   0  0  0  0  0  0
   11.9201   -1.5240   22.7080 C   0  0  0  0  0  0
   10.9733   -0.6427   23.2623 C   0  0  0  0  0  0
    9.7399   -1.0741   23.7999 N   0  0  0  0  0  0
    9.4154   -2.2878   24.3015 C   0  0  0  0  0  0
   10.1787   -3.2527   24.3080 O   0  0  0  0  0  0
    7.9908   -2.4338   24.9022 C   0  0  2  0  0  0
    8.0393   -3.0034   26.3462 C   0  0  0  0  0  0
    8.1631   -4.5421   26.3590 C   0  0  0  0  0  0
    7.0555   -5.1284   25.6719 O   0  0  0  0  0  0
    6.8001   -4.6349   24.4053 C   0  0  0  0  0  0
    6.0770   -5.4852   23.5685 C   0  0  0  0  0  0
    5.7109   -5.0678   22.2937 C   0  0  0  0  0  0
    6.0432   -3.7853   21.8649 C   0  0  0  0  0  0
    5.5701   -3.2528   20.2961 Cl  0  0  0  0  0  0
    6.7597   -2.9318   22.7032 C   0  0  0  0  0  0
    7.1547   -3.3354   23.9870 C   0  0  0  0  0  0
   11.2822    0.7625   23.2531 C   0  0  0  0  0  0
   10.3906    1.7778   23.7087 C   0  0  0  0  0  0
    9.1136    5.9666   24.2644 H   0  0  0  0  0  0
   10.8489    5.7576   24.4745 H   0  0  0  0  0  0
   10.1224    5.6725   22.8523 H   0  0  0  0  0  0
   12.2477    4.5424   23.0351 H   0  0  0  0  0  0
   13.8469    2.8488   22.3046 H   0  0  0  0  0  0
   14.3911    0.4561   21.9076 H   0  0  0  0  0  0
   11.7326   -2.5848   22.6218 H   0  0  0  0  0  0
    9.0379   -0.3555   23.8748 H   0  0  0  0  0  0
    7.5746   -1.4256   24.9243 H   0  0  0  0  0  0
    7.1208   -2.7298   26.8670 H   0  0  0  0  0  0
    8.8611   -2.5703   26.9190 H   0  0  0  0  0  0
    8.1745   -4.9116   27.3849 H   0  0  0  0  0  0
    9.0956   -4.8672   25.8970 H   0  0  0  0  0  0
    5.7918   -6.4658   23.9146 H   0  0  0  0  0  0
    5.1658   -5.7394   21.6477 H   0  0  0  0  0  0
    7.0172   -1.9436   22.3495 H   0  0  0  0  0  0
    9.4250    1.5087   24.1072 H   0  0  0  0  0  0
  1  2  1  0  0  0
  1 27  1  0  0  0
  1 28  1  0  0  0
  1 29  1  0  0  0
  2  3  1  0  0  0
  3 26  2  0  0  0
  3  4  1  0  0  0
  4  5  2  0  0  0
  4 30  1  0  0  0
  5  6  1  0  0  0
  5 31  1  0  0  0
  6 25  2  0  0  0
  6  7  1  0  0  0
  7  8  2  0  0  0
  7 32  1  0  0  0
  8  9  1  0  0  0
  9 10  2  0  0  0
  9 33  1  0  0  0
 10 11  1  0  0  0
 10 25  1  0  0  0
 11 12  1  0  0  0
 11 34  1  0  0  0
 12 13  2  0  0  0
 12 14  1  0  0  0
 14 24  1  0  0  0
 14 15  1  0  0  0
 14 35  1  0  0  0
 15 16  1  0  0  0
 15 36  1  0  0  0
 15 37  1  0  0  0
 16 17  1  0  0  0
 16 38  1  0  0  0
 16 39  1  0  0  0
 17 18  1  0  0  0
 18 24  2  0  0  0
 18 19  1  0  0  0
 19 20  2  0  0  0
 19 40  1  0  0  0
 20 21  1  0  0  0
 20 41  1  0  0  0
 21 22  1  0  0  0
 21 23  2  0  0  0
 23 24  1  0  0  0
 23 42  1  0  0  0
 25 26  1  0  0  0
 26 43  1  0  0  0
M  END
> <r_i_docking_score>
-6.12148719739521

$$$$
ligprep_5.maegz:109
                    3D
 Schrodinger Suite 2020-4.
 69 74  0  0  1  0            999 V2000
   12.1662   -0.4406   23.1079 O   0  0  0  0  0  0
   11.1707   -0.1659   23.7840 C   0  0  0  0  0  0
   10.9897    1.3259   24.1679 C   0  0  0  0  0  0
   10.4446    2.3470   23.0802 C   0  0  2  0  0  0
    9.3619    1.6928   22.1237 C   0  0  0  0  0  0
    9.6730    0.6776   21.5079 O   0  0  0  0  0  0
    8.1471    2.2676   21.9631 N   0  0  0  0  0  0
    7.0568    1.8644   21.1434 C   0  0  0  0  0  0
    7.1557    0.8821   20.1358 C   0  0  0  0  0  0
    6.1484    0.5266   19.3089 N   0  0  0  0  0  0
    4.9682    1.1519   19.4695 C   0  0  0  0  0  0
    4.7078    2.1359   20.4429 C   0  0  0  0  0  0
    3.4380    2.7469   20.5758 C   0  0  0  0  0  0
    3.2306    3.7126   21.5549 C   0  0  0  0  0  0
    4.2628    4.0896   22.4083 C   0  0  0  0  0  0
    5.5251    3.5085   22.2966 C   0  0  0  0  0  0
    5.7829    2.5093   21.3116 C   0  0  0  0  0  0
   11.6136    2.7942   22.1394 C   0  0  0  0  0  0
   12.4355    3.9691   22.6823 C   0  0  0  0  0  0
   11.5931    5.0954   22.9064 O   0  0  0  0  0  0
   10.4916    4.8531   23.7003 C   0  0  0  0  0  0
    9.9843    5.9765   24.3543 C   0  0  0  0  0  0
    8.8612    5.8626   25.1673 C   0  0  0  0  0  0
    8.2471    4.6248   25.3306 C   0  0  0  0  0  0
    6.8622    4.4672   26.3442 Cl  0  0  0  0  0  0
    8.7536    3.5064   24.6699 C   0  0  0  0  0  0
    9.8677    3.5902   23.8154 C   0  0  0  0  0  0
   10.2404   -1.1005   24.1302 N   0  0  0  0  0  0
   10.3899   -2.4998   23.6668 C   0  0  0  0  0  0
    9.0716   -2.9657   22.9983 C   0  0  0  0  0  0
    7.9048   -2.7412   23.8621 N   0  0  0  0  0  0
    6.6214   -3.2450   23.3384 C   0  0  2  0  0  0
    6.5436   -4.7358   23.0689 C   0  0  0  0  0  0
    5.2295   -4.8350   22.3088 C   0  0  0  0  0  0
    5.1974   -3.6532   21.5082 O   0  0  0  0  0  0
    6.0677   -2.6436   22.0328 C   0  0  0  0  0  0
    7.7910   -1.3256   24.2273 C   0  0  0  0  0  0
    9.0493   -0.8132   24.9586 C   0  0  0  0  0  0
   10.4554    1.4172   25.1083 H   0  0  0  0  0  0
   11.9828    1.6622   24.4649 H   0  0  0  0  0  0
    8.0017    3.1241   22.4772 H   0  0  0  0  0  0
    8.0602    0.3435   19.9194 H   0  0  0  0  0  0
    4.1859    0.8586   18.7857 H   0  0  0  0  0  0
    2.6378    2.4647   19.9083 H   0  0  0  0  0  0
    2.2626    4.1835   21.6464 H   0  0  0  0  0  0
    4.0862    4.8468   23.1564 H   0  0  0  0  0  0
    6.3067    3.8287   22.9651 H   0  0  0  0  0  0
   12.2751    1.9593   21.9095 H   0  0  0  0  0  0
   11.2350    3.1471   21.1823 H   0  0  0  0  0  0
   12.9420    3.6831   23.5987 H   0  0  0  0  0  0
   13.2120    4.2474   21.9681 H   0  0  0  0  0  0
   10.4630    6.9355   24.2262 H   0  0  0  0  0  0
    8.4673    6.7338   25.6703 H   0  0  0  0  0  0
    8.2642    2.5538   24.8173 H   0  0  0  0  0  0
   10.5963   -3.1410   24.5256 H   0  0  0  0  0  0
   11.2061   -2.6315   22.9528 H   0  0  0  0  0  0
    9.1567   -4.0256   22.7458 H   0  0  0  0  0  0
    8.9379   -2.4037   22.0713 H   0  0  0  0  0  0
    5.9024   -3.0435   24.1349 H   0  0  0  0  0  0
    6.5397   -5.3280   23.9836 H   0  0  0  0  0  0
    7.3588   -5.0923   22.4420 H   0  0  0  0  0  0
    4.3799   -4.8325   22.9934 H   0  0  0  0  0  0
    5.1765   -5.7347   21.6941 H   0  0  0  0  0  0
    6.8705   -2.4436   21.3220 H   0  0  0  0  0  0
    5.5254   -1.7212   22.2516 H   0  0  0  0  0  0
    7.6516   -0.7460   23.3121 H   0  0  0  0  0  0
    6.9147   -1.1652   24.8567 H   0  0  0  0  0  0
    8.8773    0.2394   25.1621 H   0  0  0  0  0  0
    9.1410   -1.3240   25.9167 H   0  0  0  0  0  0
  1  2  2  0  0  0
  2  3  1  0  0  0
  2 28  1  0  0  0
  3  4  1  0  0  0
  3 39  1  0  0  0
  3 40  1  0  0  0
  4 27  1  0  0  0
  4  5  1  0  0  0
  4 18  1  0  0  0
  5  6  2  0  0  0
  5  7  1  0  0  0
  7  8  1  0  0  0
  7 41  1  0  0  0
  8 17  2  0  0  0
  8  9  1  0  0  0
  9 10  2  0  0  0
  9 42  1  0  0  0
 10 11  1  0  0  0
 11 12  2  0  0  0
 11 43  1  0  0  0
 12 17  1  0  0  0
 12 13  1  0  0  0
 13 14  2  0  0  0
 13 44  1  0  0  0
 14 15  1  0  0  0
 14 45  1  0  0  0
 15 16  2  0  0  0
 15 46  1  0  0  0
 16 17  1  0  0  0
 16 47  1  0  0  0
 18 19  1  0  0  0
 18 48  1  0  0  0
 18 49  1  0  0  0
 19 20  1  0  0  0
 19 50  1  0  0  0
 19 51  1  0  0  0
 20 21  1  0  0  0
 21 27  2  0  0  0
 21 22  1  0  0  0
 22 23  2  0  0  0
 22 52  1  0  0  0
 23 24  1  0  0  0
 23 53  1  0  0  0
 24 25  1  0  0  0
 24 26  2  0  0  0
 26 27  1  0  0  0
 26 54  1  0  0  0
 28 38  1  0  0  0
 28 29  1  0  0  0
 29 30  1  0  0  0
 29 55  1  0  0  0
 29 56  1  0  0  0
 30 31  1  0  0  0
 30 57  1  0  0  0
 30 58  1  0  0  0
 31 32  1  0  0  0
 31 37  1  0  0  0
 32 36  1  0  0  0
 32 33  1  0  0  0
 32 59  1  0  0  0
 33 34  1  0  0  0
 33 60  1  0  0  0
 33 61  1  0  0  0
 34 35  1  0  0  0
 34 62  1  0  0  0
 34 63  1  0  0  0
 35 36  1  0  0  0
 36 64  1  0  0  0
 36 65  1  0  0  0
 37 38  1  0  0  0
 37 66  1  0  0  0
 37 67  1  0  0  0
 38 68  1  0  0  0
 38 69  1  0  0  0
M  END
> <r_i_docking_score>
-5.53063399579287

$$$$
ligprep_5.maegz:110
                    3D
 Schrodinger Suite 2020-4.
 39 42  0  0  1  0            999 V2000
    7.6484   -2.2150   22.4281 O   0  0  0  0  0  0
    8.3885   -1.2603   22.6771 C   0  0  0  0  0  0
    8.3187   -0.0808   22.0185 N   0  0  0  0  0  0
    7.4067    0.2120   20.9945 C   0  0  0  0  0  0
    7.5072   -0.4506   19.7674 C   0  0  0  0  0  0
    6.6918   -0.2151   18.7138 N   0  0  0  0  0  0
    5.7308    0.7209   18.8624 C   0  0  0  0  0  0
    5.5156    1.4606   20.0453 C   0  0  0  0  0  0
    4.4892    2.4251   20.1630 C   0  0  0  0  0  0
    4.3310    3.1343   21.3522 C   0  0  0  0  0  0
    5.1726    2.8953   22.4343 C   0  0  0  0  0  0
    5.0064    3.5935   23.5800 F   0  0  0  0  0  0
    6.1867    1.9465   22.3509 C   0  0  0  0  0  0
    6.3853    1.2031   21.1533 C   0  0  0  0  0  0
    9.4431   -1.3948   23.8100 C   0  0  2  0  0  0
    9.0326   -0.6139   25.0807 C   0  0  0  0  0  0
    9.3763    0.8854   24.9651 C   0  0  0  0  0  0
   10.7696    1.0854   24.7072 O   0  0  0  0  0  0
   11.3473    0.2927   23.7311 C   0  0  0  0  0  0
   12.5675    0.7498   23.2295 C   0  0  0  0  0  0
   13.2828   -0.0188   22.3109 C   0  0  0  0  0  0
   12.7816   -1.2534   21.9079 C   0  0  0  0  0  0
   13.6549   -2.2051   20.7668 Cl  0  0  0  0  0  0
   11.5546   -1.7040   22.3925 C   0  0  0  0  0  0
   10.8192   -0.9448   23.3146 C   0  0  0  0  0  0
    8.9213    0.6665   22.3277 H   0  0  0  0  0  0
    8.2671   -1.2040   19.6127 H   0  0  0  0  0  0
    5.0951    0.8907   18.0041 H   0  0  0  0  0  0
    3.8477    2.6301   19.3158 H   0  0  0  0  0  0
    3.5605    3.8877   21.4265 H   0  0  0  0  0  0
    6.8227    1.7753   23.2045 H   0  0  0  0  0  0
    9.4490   -2.4634   24.0301 H   0  0  0  0  0  0
    9.5644   -1.0170   25.9401 H   0  0  0  0  0  0
    7.9683   -0.7305   25.2927 H   0  0  0  0  0  0
    9.1265    1.3944   25.8982 H   0  0  0  0  0  0
    8.7921    1.3657   24.1803 H   0  0  0  0  0  0
   12.9686    1.6947   23.5656 H   0  0  0  0  0  0
   14.2257    0.3423   21.9251 H   0  0  0  0  0  0
   11.1641   -2.6499   22.0380 H   0  0  0  0  0  0
  1  2  2  0  0  0
  2  3  1  0  0  0
  2 15  1  0  0  0
  3  4  1  0  0  0
  3 26  1  0  0  0
  4 14  2  0  0  0
  4  5  1  0  0  0
  5  6  2  0  0  0
  5 27  1  0  0  0
  6  7  1  0  0  0
  7  8  2  0  0  0
  7 28  1  0  0  0
  8 14  1  0  0  0
  8  9  1  0  0  0
  9 10  2  0  0  0
  9 29  1  0  0  0
 10 11  1  0  0  0
 10 30  1  0  0  0
 11 12  1  0  0  0
 11 13  2  0  0  0
 13 14  1  0  0  0
 13 31  1  0  0  0
 15 16  1  0  0  0
 15 25  1  0  0  0
 15 32  1  0  0  0
 16 17  1  0  0  0
 16 33  1  0  0  0
 16 34  1  0  0  0
 17 18  1  0  0  0
 17 35  1  0  0  0
 17 36  1  0  0  0
 18 19  1  0  0  0
 19 25  2  0  0  0
 19 20  1  0  0  0
 20 21  2  0  0  0
 20 37  1  0  0  0
 21 22  1  0  0  0
 21 38  1  0  0  0
 22 23  1  0  0  0
 22 24  2  0  0  0
 24 25  1  0  0  0
 24 39  1  0  0  0
M  END
> <r_i_docking_score>
-5.85142278574679

$$$$
ligprep_5.maegz:111
                    3D
 Schrodinger Suite 2020-4.
 39 42  0  0  1  0            999 V2000
    7.6484   -2.2150   22.4281 O   0  0  0  0  0  0
    8.3885   -1.2603   22.6771 C   0  0  0  0  0  0
    8.3187   -0.0808   22.0185 N   0  0  0  0  0  0
    7.4067    0.2120   20.9945 C   0  0  0  0  0  0
    7.5072   -0.4506   19.7674 C   0  0  0  0  0  0
    6.6918   -0.2151   18.7138 N   0  0  0  0  0  0
    5.7308    0.7209   18.8624 C   0  0  0  0  0  0
    5.5156    1.4606   20.0453 C   0  0  0  0  0  0
    4.4892    2.4251   20.1630 C   0  0  0  0  0  0
    4.3310    3.1343   21.3522 C   0  0  0  0  0  0
    5.1726    2.8953   22.4343 C   0  0  0  0  0  0
    5.0064    3.5935   23.5800 F   0  0  0  0  0  0
    6.1867    1.9465   22.3509 C   0  0  0  0  0  0
    6.3853    1.2031   21.1533 C   0  0  0  0  0  0
    9.4431   -1.3948   23.8100 C   0  0  2  0  0  0
    9.0326   -0.6139   25.0807 C   0  0  0  0  0  0
    9.3763    0.8854   24.9651 C   0  0  0  0  0  0
   10.7696    1.0854   24.7072 O   0  0  0  0  0  0
   11.3473    0.2927   23.7311 C   0  0  0  0  0  0
   12.5675    0.7498   23.2295 C   0  0  0  0  0  0
   13.2828   -0.0188   22.3109 C   0  0  0  0  0  0
   12.7816   -1.2534   21.9079 C   0  0  0  0  0  0
   13.6549   -2.2051   20.7668 Cl  0  0  0  0  0  0
   11.5546   -1.7040   22.3925 C   0  0  0  0  0  0
   10.8192   -0.9448   23.3146 C   0  0  0  0  0  0
    8.9213    0.6665   22.3277 H   0  0  0  0  0  0
    8.2671   -1.2040   19.6127 H   0  0  0  0  0  0
    5.0951    0.8907   18.0041 H   0  0  0  0  0  0
    3.8477    2.6301   19.3158 H   0  0  0  0  0  0
    3.5605    3.8877   21.4265 H   0  0  0  0  0  0
    6.8227    1.7753   23.2045 H   0  0  0  0  0  0
    9.4490   -2.4634   24.0301 H   0  0  0  0  0  0
    9.5644   -1.0170   25.9401 H   0  0  0  0  0  0
    7.9683   -0.7305   25.2927 H   0  0  0  0  0  0
    9.1265    1.3944   25.8982 H   0  0  0  0  0  0
    8.7921    1.3657   24.1803 H   0  0  0  0  0  0
   12.9686    1.6947   23.5656 H   0  0  0  0  0  0
   14.2257    0.3423   21.9251 H   0  0  0  0  0  0
   11.1641   -2.6499   22.0380 H   0  0  0  0  0  0
  1  2  2  0  0  0
  2  3  1  0  0  0
  2 15  1  0  0  0
  3  4  1  0  0  0
  3 26  1  0  0  0
  4 14  2  0  0  0
  4  5  1  0  0  0
  5  6  2  0  0  0
  5 27  1  0  0  0
  6  7  1  0  0  0
  7  8  2  0  0  0
  7 28  1  0  0  0
  8 14  1  0  0  0
  8  9  1  0  0  0
  9 10  2  0  0  0
  9 29  1  0  0  0
 10 11  1  0  0  0
 10 30  1  0  0  0
 11 12  1  0  0  0
 11 13  2  0  0  0
 13 14  1  0  0  0
 13 31  1  0  0  0
 15 16  1  0  0  0
 15 25  1  0  0  0
 15 32  1  0  0  0
 16 17  1  0  0  0
 16 33  1  0  0  0
 16 34  1  0  0  0
 17 18  1  0  0  0
 17 35  1  0  0  0
 17 36  1  0  0  0
 18 19  1  0  0  0
 19 25  2  0  0  0
 19 20  1  0  0  0
 20 21  2  0  0  0
 20 37  1  0  0  0
 21 22  1  0  0  0
 21 38  1  0  0  0
 22 23  1  0  0  0
 22 24  2  0  0  0
 24 25  1  0  0  0
 24 39  1  0  0  0
M  END
> <r_i_docking_score>
-5.85142278574679

$$$$
ligprep_5.maegz:112
                    3D
 Schrodinger Suite 2020-4.
 45 48  0  0  1  0            999 V2000
    6.6292   -5.8204   22.6398 C   0  0  0  0  0  0
    6.3030   -4.3460   22.3592 C   0  0  0  0  0  0
    5.1778   -4.1214   21.9106 O   0  0  0  0  0  0
    7.2245   -3.3632   22.6208 N   0  0  0  0  0  0
    8.3478   -3.7012   23.5218 C   0  0  0  0  0  0
    8.2621   -2.7304   24.7195 C   0  0  0  0  0  0
    8.4194   -1.2509   24.2787 C   0  0  1  0  0  0
    9.9005   -0.8882   23.9543 C   0  0  0  0  0  0
   10.7633   -1.7661   23.9037 O   0  0  0  0  0  0
   10.1585    0.4243   23.7665 N   0  0  0  0  0  0
   11.3340    1.0666   23.3223 C   0  0  0  0  0  0
   12.4387    0.3770   22.7914 C   0  0  0  0  0  0
   13.5471    0.9771   22.3080 N   0  0  0  0  0  0
   13.5692    2.3250   22.3078 C   0  0  0  0  0  0
   12.5516    3.1495   22.8235 C   0  0  0  0  0  0
   12.6546    4.5618   22.8409 C   0  0  0  0  0  0
   11.6224    5.3268   23.3747 C   0  0  0  0  0  0
   10.4849    4.7161   23.8905 C   0  0  0  0  0  0
   10.3575    3.3286   23.8842 C   0  0  0  0  0  0
   11.3919    2.5025   23.3531 C   0  0  0  0  0  0
    7.5198   -0.9421   23.0646 C   0  0  0  0  0  0
    7.2438    0.3856   22.6963 C   0  0  0  0  0  0
    6.5586    0.6946   21.5271 C   0  0  0  0  0  0
    6.2746    2.3453   21.1062 Cl  0  0  0  0  0  0
    6.1315   -0.3278   20.6909 C   0  0  0  0  0  0
    6.3625   -1.6517   21.0504 C   0  0  0  0  0  0
    7.0002   -1.9914   22.2619 C   0  0  0  0  0  0
    7.6333   -6.0766   22.2984 H   0  0  0  0  0  0
    6.5399   -6.0482   23.7023 H   0  0  0  0  0  0
    5.9345   -6.4705   22.1051 H   0  0  0  0  0  0
    8.4231   -4.7343   23.8592 H   0  0  0  0  0  0
    9.2619   -3.4544   22.9836 H   0  0  0  0  0  0
    7.3098   -2.8760   25.2325 H   0  0  0  0  0  0
    9.0321   -2.9970   25.4457 H   0  0  0  0  0  0
    8.1758   -0.6036   25.1234 H   0  0  0  0  0  0
    9.3853    1.0465   23.9289 H   0  0  0  0  0  0
   12.4645   -0.6974   22.7077 H   0  0  0  0  0  0
   14.4668    2.7726   21.9087 H   0  0  0  0  0  0
   13.5382    5.0400   22.4428 H   0  0  0  0  0  0
   11.7029    6.4039   23.3855 H   0  0  0  0  0  0
    9.6904    5.3259   24.2960 H   0  0  0  0  0  0
    9.4635    2.8841   24.2939 H   0  0  0  0  0  0
    7.5861    1.2021   23.3125 H   0  0  0  0  0  0
    5.6188   -0.0974   19.7681 H   0  0  0  0  0  0
    6.0295   -2.4159   20.3655 H   0  0  0  0  0  0
  1  2  1  0  0  0
  1 28  1  0  0  0
  1 29  1  0  0  0
  1 30  1  0  0  0
  2  3  2  0  0  0
  2  4  1  0  0  0
  4 27  1  0  0  0
  4  5  1  0  0  0
  5  6  1  0  0  0
  5 31  1  0  0  0
  5 32  1  0  0  0
  6  7  1  0  0  0
  6 33  1  0  0  0
  6 34  1  0  0  0
  7  8  1  0  0  0
  7 21  1  0  0  0
  7 35  1  0  0  0
  8  9  2  0  0  0
  8 10  1  0  0  0
 10 11  1  0  0  0
 10 36  1  0  0  0
 11 20  2  0  0  0
 11 12  1  0  0  0
 12 13  2  0  0  0
 12 37  1  0  0  0
 13 14  1  0  0  0
 14 15  2  0  0  0
 14 38  1  0  0  0
 15 20  1  0  0  0
 15 16  1  0  0  0
 16 17  2  0  0  0
 16 39  1  0  0  0
 17 18  1  0  0  0
 17 40  1  0  0  0
 18 19  2  0  0  0
 18 41  1  0  0  0
 19 20  1  0  0  0
 19 42  1  0  0  0
 21 27  2  0  0  0
 21 22  1  0  0  0
 22 23  2  0  0  0
 22 43  1  0  0  0
 23 24  1  0  0  0
 23 25  1  0  0  0
 25 26  2  0  0  0
 25 44  1  0  0  0
 26 27  1  0  0  0
 26 45  1  0  0  0
M  END
> <r_i_docking_score>
-7.06607178973785

$$$$
ligprep_5.maegz:113
                    3D
 Schrodinger Suite 2020-4.
 45 48  0  0  1  0            999 V2000
    6.6292   -5.8204   22.6398 C   0  0  0  0  0  0
    6.3030   -4.3460   22.3592 C   0  0  0  0  0  0
    5.1778   -4.1214   21.9106 O   0  0  0  0  0  0
    7.2245   -3.3632   22.6208 N   0  0  0  0  0  0
    8.3478   -3.7012   23.5218 C   0  0  0  0  0  0
    8.2621   -2.7304   24.7195 C   0  0  0  0  0  0
    8.4194   -1.2509   24.2787 C   0  0  1  0  0  0
    9.9005   -0.8882   23.9543 C   0  0  0  0  0  0
   10.7633   -1.7661   23.9037 O   0  0  0  0  0  0
   10.1585    0.4243   23.7665 N   0  0  0  0  0  0
   11.3340    1.0666   23.3223 C   0  0  0  0  0  0
   12.4387    0.3770   22.7914 C   0  0  0  0  0  0
   13.5471    0.9771   22.3080 N   0  0  0  0  0  0
   13.5692    2.3250   22.3078 C   0  0  0  0  0  0
   12.5516    3.1495   22.8235 C   0  0  0  0  0  0
   12.6546    4.5618   22.8409 C   0  0  0  0  0  0
   11.6224    5.3268   23.3747 C   0  0  0  0  0  0
   10.4849    4.7161   23.8905 C   0  0  0  0  0  0
   10.3575    3.3286   23.8842 C   0  0  0  0  0  0
   11.3919    2.5025   23.3531 C   0  0  0  0  0  0
    7.5198   -0.9421   23.0646 C   0  0  0  0  0  0
    7.2438    0.3856   22.6963 C   0  0  0  0  0  0
    6.5586    0.6946   21.5271 C   0  0  0  0  0  0
    6.2746    2.3453   21.1062 Cl  0  0  0  0  0  0
    6.1315   -0.3278   20.6909 C   0  0  0  0  0  0
    6.3625   -1.6517   21.0504 C   0  0  0  0  0  0
    7.0002   -1.9914   22.2619 C   0  0  0  0  0  0
    7.6333   -6.0766   22.2984 H   0  0  0  0  0  0
    6.5399   -6.0482   23.7023 H   0  0  0  0  0  0
    5.9345   -6.4705   22.1051 H   0  0  0  0  0  0
    8.4231   -4.7343   23.8592 H   0  0  0  0  0  0
    9.2619   -3.4544   22.9836 H   0  0  0  0  0  0
    7.3098   -2.8760   25.2325 H   0  0  0  0  0  0
    9.0321   -2.9970   25.4457 H   0  0  0  0  0  0
    8.1758   -0.6036   25.1234 H   0  0  0  0  0  0
    9.3853    1.0465   23.9289 H   0  0  0  0  0  0
   12.4645   -0.6974   22.7077 H   0  0  0  0  0  0
   14.4668    2.7726   21.9087 H   0  0  0  0  0  0
   13.5382    5.0400   22.4428 H   0  0  0  0  0  0
   11.7029    6.4039   23.3855 H   0  0  0  0  0  0
    9.6904    5.3259   24.2960 H   0  0  0  0  0  0
    9.4635    2.8841   24.2939 H   0  0  0  0  0  0
    7.5861    1.2021   23.3125 H   0  0  0  0  0  0
    5.6188   -0.0974   19.7681 H   0  0  0  0  0  0
    6.0295   -2.4159   20.3655 H   0  0  0  0  0  0
  1  2  1  0  0  0
  1 28  1  0  0  0
  1 29  1  0  0  0
  1 30  1  0  0  0
  2  3  2  0  0  0
  2  4  1  0  0  0
  4 27  1  0  0  0
  4  5  1  0  0  0
  5  6  1  0  0  0
  5 31  1  0  0  0
  5 32  1  0  0  0
  6  7  1  0  0  0
  6 33  1  0  0  0
  6 34  1  0  0  0
  7  8  1  0  0  0
  7 21  1  0  0  0
  7 35  1  0  0  0
  8  9  2  0  0  0
  8 10  1  0  0  0
 10 11  1  0  0  0
 10 36  1  0  0  0
 11 20  2  0  0  0
 11 12  1  0  0  0
 12 13  2  0  0  0
 12 37  1  0  0  0
 13 14  1  0  0  0
 14 15  2  0  0  0
 14 38  1  0  0  0
 15 20  1  0  0  0
 15 16  1  0  0  0
 16 17  2  0  0  0
 16 39  1  0  0  0
 17 18  1  0  0  0
 17 40  1  0  0  0
 18 19  2  0  0  0
 18 41  1  0  0  0
 19 20  1  0  0  0
 19 42  1  0  0  0
 21 27  2  0  0  0
 21 22  1  0  0  0
 22 23  2  0  0  0
 22 43  1  0  0  0
 23 24  1  0  0  0
 23 25  1  0  0  0
 25 26  2  0  0  0
 25 44  1  0  0  0
 26 27  1  0  0  0
 26 45  1  0  0  0
M  END
> <r_i_docking_score>
-7.06607178973785

$$$$
ligprep_5.maegz:114
                    3D
 Schrodinger Suite 2020-4.
 43 46  0  0  1  0            999 V2000
   12.4169    4.8008   22.9514 C   0  0  0  0  0  0
   11.6946    3.6543   23.5094 N   0  0  0  0  0  0
   10.3531    4.1105   23.8977 C   0  0  0  0  0  0
    9.5200    2.9901   24.5458 C   0  0  0  0  0  0
    9.4697    1.7089   23.6859 C   0  0  1  0  0  0
    8.5265    1.8468   22.4644 C   0  0  0  0  0  0
    8.3801    2.9345   21.9081 O   0  0  0  0  0  0
    7.8813    0.7372   22.0468 N   0  0  0  0  0  0
    7.0037    0.7285   20.9501 C   0  0  0  0  0  0
    7.3277   -0.0902   19.8662 C   0  0  0  0  0  0
    6.6329   -0.1153   18.7081 N   0  0  0  0  0  0
    5.5631    0.7027   18.6065 C   0  0  0  0  0  0
    5.0862    1.5369   19.6424 C   0  0  0  0  0  0
    3.9335    2.3473   19.5059 C   0  0  0  0  0  0
    3.5017    3.1366   20.5663 C   0  0  0  0  0  0
    4.1956    3.1423   21.7692 C   0  0  0  0  0  0
    5.3352    2.3605   21.9315 C   0  0  0  0  0  0
    5.8200    1.5451   20.8681 C   0  0  0  0  0  0
   10.8830    1.3400   23.2195 C   0  0  0  0  0  0
   11.1734    0.0217   22.8324 C   0  0  0  0  0  0
   12.4393   -0.3419   22.3828 C   0  0  0  0  0  0
   12.7717   -1.9670   21.9088 Cl  0  0  0  0  0  0
   13.4397    0.6160   22.3082 C   0  0  0  0  0  0
   13.1694    1.9344   22.6540 C   0  0  0  0  0  0
   11.8972    2.3285   23.0897 C   0  0  0  0  0  0
   12.1238    4.9675   21.9093 H   0  0  0  0  0  0
   12.2269    5.7238   23.5077 H   0  0  0  0  0  0
   13.4989    4.6508   22.9818 H   0  0  0  0  0  0
   10.3688    5.0480   24.4576 H   0  0  0  0  0  0
    9.8725    4.4140   22.9686 H   0  0  0  0  0  0
    9.9665    2.7496   25.5086 H   0  0  0  0  0  0
    8.5180    3.3633   24.7612 H   0  0  0  0  0  0
    9.0459    0.8955   24.2766 H   0  0  0  0  0  0
    8.1732   -0.1556   22.4122 H   0  0  0  0  0  0
    8.2009   -0.7274   19.8904 H   0  0  0  0  0  0
    5.0331    0.6776   17.6648 H   0  0  0  0  0  0
    3.4006    2.3639   18.5680 H   0  0  0  0  0  0
    2.6340    3.7668   20.4465 H   0  0  0  0  0  0
    3.8532    3.7679   22.5802 H   0  0  0  0  0  0
    5.8570    2.3847   22.8755 H   0  0  0  0  0  0
   10.4080   -0.7373   22.8899 H   0  0  0  0  0  0
   14.4213    0.3487   21.9572 H   0  0  0  0  0  0
   13.9724    2.6471   22.5795 H   0  0  0  0  0  0
  1  2  1  0  0  0
  1 26  1  0  0  0
  1 27  1  0  0  0
  1 28  1  0  0  0
  2 25  1  0  0  0
  2  3  1  0  0  0
  3  4  1  0  0  0
  3 29  1  0  0  0
  3 30  1  0  0  0
  4  5  1  0  0  0
  4 31  1  0  0  0
  4 32  1  0  0  0
  5  6  1  0  0  0
  5 19  1  0  0  0
  5 33  1  0  0  0
  6  7  2  0  0  0
  6  8  1  0  0  0
  8  9  1  0  0  0
  8 34  1  0  0  0
  9 18  2  0  0  0
  9 10  1  0  0  0
 10 11  2  0  0  0
 10 35  1  0  0  0
 11 12  1  0  0  0
 12 13  2  0  0  0
 12 36  1  0  0  0
 13 18  1  0  0  0
 13 14  1  0  0  0
 14 15  2  0  0  0
 14 37  1  0  0  0
 15 16  1  0  0  0
 15 38  1  0  0  0
 16 17  2  0  0  0
 16 39  1  0  0  0
 17 18  1  0  0  0
 17 40  1  0  0  0
 19 25  2  0  0  0
 19 20  1  0  0  0
 20 21  2  0  0  0
 20 41  1  0  0  0
 21 22  1  0  0  0
 21 23  1  0  0  0
 23 24  2  0  0  0
 23 42  1  0  0  0
 24 25  1  0  0  0
 24 43  1  0  0  0
M  END
> <r_i_docking_score>
-6.14828290923711

$$$$
ligprep_5.maegz:115
                    3D
 Schrodinger Suite 2020-4.
 43 46  0  0  1  0            999 V2000
   12.4169    4.8008   22.9514 C   0  0  0  0  0  0
   11.6946    3.6543   23.5094 N   0  0  0  0  0  0
   10.3531    4.1105   23.8977 C   0  0  0  0  0  0
    9.5200    2.9901   24.5458 C   0  0  0  0  0  0
    9.4697    1.7089   23.6859 C   0  0  1  0  0  0
    8.5265    1.8468   22.4644 C   0  0  0  0  0  0
    8.3801    2.9345   21.9081 O   0  0  0  0  0  0
    7.8813    0.7372   22.0468 N   0  0  0  0  0  0
    7.0037    0.7285   20.9501 C   0  0  0  0  0  0
    7.3277   -0.0902   19.8662 C   0  0  0  0  0  0
    6.6329   -0.1153   18.7081 N   0  0  0  0  0  0
    5.5631    0.7027   18.6065 C   0  0  0  0  0  0
    5.0862    1.5369   19.6424 C   0  0  0  0  0  0
    3.9335    2.3473   19.5059 C   0  0  0  0  0  0
    3.5017    3.1366   20.5663 C   0  0  0  0  0  0
    4.1956    3.1423   21.7692 C   0  0  0  0  0  0
    5.3352    2.3605   21.9315 C   0  0  0  0  0  0
    5.8200    1.5451   20.8681 C   0  0  0  0  0  0
   10.8830    1.3400   23.2195 C   0  0  0  0  0  0
   11.1734    0.0217   22.8324 C   0  0  0  0  0  0
   12.4393   -0.3419   22.3828 C   0  0  0  0  0  0
   12.7717   -1.9670   21.9088 Cl  0  0  0  0  0  0
   13.4397    0.6160   22.3082 C   0  0  0  0  0  0
   13.1694    1.9344   22.6540 C   0  0  0  0  0  0
   11.8972    2.3285   23.0897 C   0  0  0  0  0  0
   12.1238    4.9675   21.9093 H   0  0  0  0  0  0
   12.2269    5.7238   23.5077 H   0  0  0  0  0  0
   13.4989    4.6508   22.9818 H   0  0  0  0  0  0
   10.3688    5.0480   24.4576 H   0  0  0  0  0  0
    9.8725    4.4140   22.9686 H   0  0  0  0  0  0
    9.9665    2.7496   25.5086 H   0  0  0  0  0  0
    8.5180    3.3633   24.7612 H   0  0  0  0  0  0
    9.0459    0.8955   24.2766 H   0  0  0  0  0  0
    8.1732   -0.1556   22.4122 H   0  0  0  0  0  0
    8.2009   -0.7274   19.8904 H   0  0  0  0  0  0
    5.0331    0.6776   17.6648 H   0  0  0  0  0  0
    3.4006    2.3639   18.5680 H   0  0  0  0  0  0
    2.6340    3.7668   20.4465 H   0  0  0  0  0  0
    3.8532    3.7679   22.5802 H   0  0  0  0  0  0
    5.8570    2.3847   22.8755 H   0  0  0  0  0  0
   10.4080   -0.7373   22.8899 H   0  0  0  0  0  0
   14.4213    0.3487   21.9572 H   0  0  0  0  0  0
   13.9724    2.6471   22.5795 H   0  0  0  0  0  0
  1  2  1  0  0  0
  1 26  1  0  0  0
  1 27  1  0  0  0
  1 28  1  0  0  0
  2 25  1  0  0  0
  2  3  1  0  0  0
  3  4  1  0  0  0
  3 29  1  0  0  0
  3 30  1  0  0  0
  4  5  1  0  0  0
  4 31  1  0  0  0
  4 32  1  0  0  0
  5  6  1  0  0  0
  5 19  1  0  0  0
  5 33  1  0  0  0
  6  7  2  0  0  0
  6  8  1  0  0  0
  8  9  1  0  0  0
  8 34  1  0  0  0
  9 18  2  0  0  0
  9 10  1  0  0  0
 10 11  2  0  0  0
 10 35  1  0  0  0
 11 12  1  0  0  0
 12 13  2  0  0  0
 12 36  1  0  0  0
 13 18  1  0  0  0
 13 14  1  0  0  0
 14 15  2  0  0  0
 14 37  1  0  0  0
 15 16  1  0  0  0
 15 38  1  0  0  0
 16 17  2  0  0  0
 16 39  1  0  0  0
 17 18  1  0  0  0
 17 40  1  0  0  0
 19 25  2  0  0  0
 19 20  1  0  0  0
 20 21  2  0  0  0
 20 41  1  0  0  0
 21 22  1  0  0  0
 21 23  1  0  0  0
 23 24  2  0  0  0
 23 42  1  0  0  0
 24 25  1  0  0  0
 24 43  1  0  0  0
M  END
> <r_i_docking_score>
-6.14828290923711

$$$$
ligprep_5.maegz:116
                    3D
 Schrodinger Suite 2020-4.
 41 45  0  0  1  0            999 V2000
    7.3234   -2.8914   22.2476 O   0  0  0  0  0  0
    8.0285   -2.0750   22.8375 C   0  0  0  0  0  0
    8.4109   -0.8820   22.3669 N   0  0  0  0  0  0
    9.1848   -0.0982   23.2930 C   0  0  2  0  0  0
    8.5926    1.3153   23.5350 C   0  0  0  0  0  0
    9.5616    2.2047   24.3398 C   0  0  0  0  0  0
   10.7917    2.3635   23.6314 O   0  0  0  0  0  0
   11.3823    1.2038   23.1641 C   0  0  0  0  0  0
   12.7387    1.3166   22.8654 C   0  0  0  0  0  0
   13.4235    0.2344   22.3222 C   0  0  0  0  0  0
   12.7522   -0.9609   22.0724 C   0  0  0  0  0  0
   13.5744   -2.3006   21.3682 Cl  0  0  0  0  0  0
   11.3969   -1.0681   22.3648 C   0  0  0  0  0  0
   10.6775    0.0038   22.9217 C   0  0  0  0  0  0
    9.0784   -0.9867   24.5272 C   0  0  0  0  0  0
    9.4605   -0.6971   25.6638 O   0  0  0  0  0  0
    8.4894   -2.1327   24.1168 N   0  0  0  0  0  0
    8.3848   -3.2698   24.9389 C   0  0  0  0  0  0
    9.5153   -4.0791   25.1090 C   0  0  0  0  0  0
    9.5464   -5.1740   25.9032 N   0  0  0  0  0  0
    8.4113   -5.4930   26.5626 C   0  0  0  0  0  0
    7.2013   -4.7707   26.4803 C   0  0  0  0  0  0
    6.0385   -5.1497   27.1943 C   0  0  0  0  0  0
    4.8768   -4.3912   27.0794 C   0  0  0  0  0  0
    4.8429   -3.2623   26.2665 C   0  0  0  0  0  0
    5.9726   -2.8678   25.5524 C   0  0  0  0  0  0
    7.1808   -3.6148   25.6388 C   0  0  0  0  0  0
    8.4591   -0.6846   21.3785 H   0  0  0  0  0  0
    7.6238    1.2657   24.0357 H   0  0  0  0  0  0
    8.4336    1.8144   22.5773 H   0  0  0  0  0  0
    9.7586    1.7849   25.3273 H   0  0  0  0  0  0
    9.1226    3.1908   24.4979 H   0  0  0  0  0  0
   13.2536    2.2497   23.0412 H   0  0  0  0  0  0
   14.4642    0.3459   22.0733 H   0  0  0  0  0  0
   10.9017   -2.0046   22.1521 H   0  0  0  0  0  0
   10.4448   -3.8415   24.6110 H   0  0  0  0  0  0
    8.4642   -6.3721   27.1871 H   0  0  0  0  0  0
    6.0597   -6.0277   27.8254 H   0  0  0  0  0  0
    3.9918   -4.6813   27.6270 H   0  0  0  0  0  0
    3.9331   -2.6854   26.1878 H   0  0  0  0  0  0
    5.9286   -1.9896   24.9251 H   0  0  0  0  0  0
  1  2  2  0  0  0
  2 17  1  0  0  0
  2  3  1  0  0  0
  3  4  1  0  0  0
  3 28  1  0  0  0
  4 14  1  0  0  0
  4  5  1  0  0  0
  4 15  1  0  0  0
  5  6  1  0  0  0
  5 29  1  0  0  0
  5 30  1  0  0  0
  6  7  1  0  0  0
  6 31  1  0  0  0
  6 32  1  0  0  0
  7  8  1  0  0  0
  8 14  2  0  0  0
  8  9  1  0  0  0
  9 10  2  0  0  0
  9 33  1  0  0  0
 10 11  1  0  0  0
 10 34  1  0  0  0
 11 12  1  0  0  0
 11 13  2  0  0  0
 13 14  1  0  0  0
 13 35  1  0  0  0
 15 16  2  0  0  0
 15 17  1  0  0  0
 17 18  1  0  0  0
 18 27  2  0  0  0
 18 19  1  0  0  0
 19 20  2  0  0  0
 19 36  1  0  0  0
 20 21  1  0  0  0
 21 22  2  0  0  0
 21 37  1  0  0  0
 22 27  1  0  0  0
 22 23  1  0  0  0
 23 24  2  0  0  0
 23 38  1  0  0  0
 24 25  1  0  0  0
 24 39  1  0  0  0
 25 26  2  0  0  0
 25 40  1  0  0  0
 26 27  1  0  0  0
 26 41  1  0  0  0
M  END
> <r_i_docking_score>
-6.26089591949088

$$$$
ligprep_5.maegz:117
                    3D
 Schrodinger Suite 2020-4.
 43 46  0  0  1  0            999 V2000
    9.5556    0.3927   25.5081 C   0  0  0  0  0  0
    9.0035    0.1765   24.2143 O   0  0  0  0  0  0
    9.8358   -0.3347   23.1550 C   0  0  2  0  0  0
    8.9425   -0.3433   21.8687 C   0  0  0  0  0  0
    9.0463   -1.2530   21.0486 O   0  0  0  0  0  0
    8.0359    0.6525   21.7470 N   0  0  0  0  0  0
    7.0681    0.8644   20.7403 C   0  0  0  0  0  0
    7.1483    0.2958   19.4564 C   0  0  0  0  0  0
    6.2271    0.4799   18.4847 N   0  0  0  0  0  0
    5.1727    1.2695   18.7639 C   0  0  0  0  0  0
    4.9651    1.9169   19.9976 C   0  0  0  0  0  0
    3.8449    2.7456   20.2388 C   0  0  0  0  0  0
    3.6882    3.3663   21.4744 C   0  0  0  0  0  0
    4.6256    3.1761   22.4841 C   0  0  0  0  0  0
    5.7384    2.3652   22.2756 C   0  0  0  0  0  0
    5.9425    1.7153   21.0219 C   0  0  0  0  0  0
   10.3274   -1.7852   23.4652 C   0  0  0  0  0  0
   11.5015   -2.2239   22.5616 C   0  0  0  0  0  0
   12.6014   -1.3329   22.6921 O   0  0  0  0  0  0
   12.3151    0.0136   22.6012 C   0  0  0  0  0  0
   13.4173    0.8126   22.3086 C   0  0  0  0  0  0
   13.2972    2.1965   22.3092 C   0  0  0  0  0  0
   12.0762    2.7840   22.6198 C   0  0  0  0  0  0
   11.9643    4.5059   22.7093 Cl  0  0  0  0  0  0
   10.9604    1.9814   22.8663 C   0  0  0  0  0  0
   11.0486    0.5784   22.8704 C   0  0  0  0  0  0
    8.7820    0.8338   26.1393 H   0  0  0  0  0  0
    9.8661   -0.5327   25.9937 H   0  0  0  0  0  0
   10.3969    1.0878   25.5016 H   0  0  0  0  0  0
    7.9773    1.2694   22.5435 H   0  0  0  0  0  0
    7.9700   -0.3343   19.1545 H   0  0  0  0  0  0
    4.4567    1.3991   17.9656 H   0  0  0  0  0  0
    3.1238    2.9099   19.4504 H   0  0  0  0  0  0
    2.8411    4.0136   21.6457 H   0  0  0  0  0  0
    4.4913    3.6692   23.4353 H   0  0  0  0  0  0
    6.4448    2.2305   23.0785 H   0  0  0  0  0  0
    9.5104   -2.5042   23.4000 H   0  0  0  0  0  0
   10.6867   -1.8561   24.4887 H   0  0  0  0  0  0
   11.2108   -2.3017   21.5119 H   0  0  0  0  0  0
   11.8404   -3.2131   22.8631 H   0  0  0  0  0  0
   14.3700    0.3521   22.1010 H   0  0  0  0  0  0
   14.1614    2.8108   22.1031 H   0  0  0  0  0  0
   10.0170    2.4573   23.0842 H   0  0  0  0  0  0
  1  2  1  0  0  0
  1 27  1  0  0  0
  1 28  1  0  0  0
  1 29  1  0  0  0
  2  3  1  0  0  0
  3 26  1  0  0  0
  3  4  1  0  0  0
  3 17  1  0  0  0
  4  5  2  0  0  0
  4  6  1  0  0  0
  6  7  1  0  0  0
  6 30  1  0  0  0
  7 16  2  0  0  0
  7  8  1  0  0  0
  8  9  2  0  0  0
  8 31  1  0  0  0
  9 10  1  0  0  0
 10 11  2  0  0  0
 10 32  1  0  0  0
 11 16  1  0  0  0
 11 12  1  0  0  0
 12 13  2  0  0  0
 12 33  1  0  0  0
 13 14  1  0  0  0
 13 34  1  0  0  0
 14 15  2  0  0  0
 14 35  1  0  0  0
 15 16  1  0  0  0
 15 36  1  0  0  0
 17 18  1  0  0  0
 17 37  1  0  0  0
 17 38  1  0  0  0
 18 19  1  0  0  0
 18 39  1  0  0  0
 18 40  1  0  0  0
 19 20  1  0  0  0
 20 26  2  0  0  0
 20 21  1  0  0  0
 21 22  2  0  0  0
 21 41  1  0  0  0
 22 23  1  0  0  0
 22 42  1  0  0  0
 23 24  1  0  0  0
 23 25  2  0  0  0
 25 26  1  0  0  0
 25 43  1  0  0  0
M  END
> <r_i_docking_score>
-5.67185013994704

$$$$
ligprep_5.maegz:118
                    3D
 Schrodinger Suite 2020-4.
 43 46  0  0  1  0            999 V2000
    9.5948    0.3215   25.5833 C   0  0  0  0  0  0
    9.0582    0.0019   24.2987 O   0  0  0  0  0  0
    9.9518   -0.2031   23.1890 C   0  0  2  0  0  0
    9.0297   -0.3207   21.9224 C   0  0  0  0  0  0
    9.2011   -1.2289   21.1078 O   0  0  0  0  0  0
    8.0288    0.5861   21.8109 N   0  0  0  0  0  0
    7.0695    0.7607   20.7798 C   0  0  0  0  0  0
    7.1622    0.1483   19.5160 C   0  0  0  0  0  0
    6.2777    0.3294   18.5111 N   0  0  0  0  0  0
    5.2367    1.1532   18.7344 C   0  0  0  0  0  0
    5.0027    1.8315   19.9483 C   0  0  0  0  0  0
    3.8912    2.6865   20.1349 C   0  0  0  0  0  0
    3.7039    3.3313   21.3549 C   0  0  0  0  0  0
    4.6084    3.1462   22.3959 C   0  0  0  0  0  0
    5.7157    2.3162   22.2391 C   0  0  0  0  0  0
    5.9477    1.6327   21.0074 C   0  0  0  0  0  0
   10.7770   -1.5170   23.3806 C   0  0  0  0  0  0
   12.0052   -1.5734   22.4508 C   0  0  0  0  0  0
   12.8739   -0.4732   22.7032 O   0  0  0  0  0  0
   12.2812    0.7755   22.7151 C   0  0  0  0  0  0
   13.1679    1.8398   22.5540 C   0  0  0  0  0  0
   12.7161    3.1538   22.6588 C   0  0  0  0  0  0
   13.8495    4.4497   22.4586 Cl  0  0  0  0  0  0
   11.3671    3.3987   22.9331 C   0  0  0  0  0  0
   10.7675    5.0120   23.1180 Cl  0  0  0  0  0  0
   10.4813    2.3285   23.0759 C   0  0  0  0  0  0
   10.9120    0.9953   22.9835 C   0  0  0  0  0  0
    8.7715    0.4412   26.2893 H   0  0  0  0  0  0
   10.2436   -0.4527   25.9829 H   0  0  0  0  0  0
   10.1447    1.2617   25.5721 H   0  0  0  0  0  0
    7.9075    1.1902   22.6100 H   0  0  0  0  0  0
    7.9716   -0.5144   19.2520 H   0  0  0  0  0  0
    4.5560    1.2867   17.9083 H   0  0  0  0  0  0
    3.1973    2.8487   19.3211 H   0  0  0  0  0  0
    2.8617    3.9948   21.4852 H   0  0  0  0  0  0
    4.4488    3.6590   23.3349 H   0  0  0  0  0  0
    6.3961    2.1901   23.0680 H   0  0  0  0  0  0
   10.1532   -2.4012   23.2414 H   0  0  0  0  0  0
   11.1519   -1.5899   24.3972 H   0  0  0  0  0  0
   11.7004   -1.5645   21.4056 H   0  0  0  0  0  0
   12.5568   -2.4998   22.6132 H   0  0  0  0  0  0
   14.2124    1.6445   22.3613 H   0  0  0  0  0  0
    9.4453    2.5416   23.2978 H   0  0  0  0  0  0
  1  2  1  0  0  0
  1 28  1  0  0  0
  1 29  1  0  0  0
  1 30  1  0  0  0
  2  3  1  0  0  0
  3 27  1  0  0  0
  3  4  1  0  0  0
  3 17  1  0  0  0
  4  5  2  0  0  0
  4  6  1  0  0  0
  6  7  1  0  0  0
  6 31  1  0  0  0
  7 16  2  0  0  0
  7  8  1  0  0  0
  8  9  2  0  0  0
  8 32  1  0  0  0
  9 10  1  0  0  0
 10 11  2  0  0  0
 10 33  1  0  0  0
 11 16  1  0  0  0
 11 12  1  0  0  0
 12 13  2  0  0  0
 12 34  1  0  0  0
 13 14  1  0  0  0
 13 35  1  0  0  0
 14 15  2  0  0  0
 14 36  1  0  0  0
 15 16  1  0  0  0
 15 37  1  0  0  0
 17 18  1  0  0  0
 17 38  1  0  0  0
 17 39  1  0  0  0
 18 19  1  0  0  0
 18 40  1  0  0  0
 18 41  1  0  0  0
 19 20  1  0  0  0
 20 27  2  0  0  0
 20 21  1  0  0  0
 21 22  2  0  0  0
 21 42  1  0  0  0
 22 23  1  0  0  0
 22 24  1  0  0  0
 24 25  1  0  0  0
 24 26  2  0  0  0
 26 27  1  0  0  0
 26 43  1  0  0  0
M  END
> <r_i_docking_score>
-5.73675608849071

$$$$
ligprep_5.maegz:119
                    3D
 Schrodinger Suite 2020-4.
 43 46  0  0  1  0            999 V2000
    9.5948    0.3215   25.5833 C   0  0  0  0  0  0
    9.0582    0.0019   24.2987 O   0  0  0  0  0  0
    9.9518   -0.2031   23.1890 C   0  0  2  0  0  0
    9.0297   -0.3207   21.9224 C   0  0  0  0  0  0
    9.2011   -1.2289   21.1078 O   0  0  0  0  0  0
    8.0288    0.5861   21.8109 N   0  0  0  0  0  0
    7.0695    0.7607   20.7798 C   0  0  0  0  0  0
    7.1622    0.1483   19.5160 C   0  0  0  0  0  0
    6.2777    0.3294   18.5111 N   0  0  0  0  0  0
    5.2367    1.1532   18.7344 C   0  0  0  0  0  0
    5.0027    1.8315   19.9483 C   0  0  0  0  0  0
    3.8912    2.6865   20.1349 C   0  0  0  0  0  0
    3.7039    3.3313   21.3549 C   0  0  0  0  0  0
    4.6084    3.1462   22.3959 C   0  0  0  0  0  0
    5.7157    2.3162   22.2391 C   0  0  0  0  0  0
    5.9477    1.6327   21.0074 C   0  0  0  0  0  0
   10.7770   -1.5170   23.3806 C   0  0  0  0  0  0
   12.0052   -1.5734   22.4508 C   0  0  0  0  0  0
   12.8739   -0.4732   22.7032 O   0  0  0  0  0  0
   12.2812    0.7755   22.7151 C   0  0  0  0  0  0
   13.1679    1.8398   22.5540 C   0  0  0  0  0  0
   12.7161    3.1538   22.6588 C   0  0  0  0  0  0
   13.8495    4.4497   22.4586 Cl  0  0  0  0  0  0
   11.3671    3.3987   22.9331 C   0  0  0  0  0  0
   10.7675    5.0120   23.1180 Cl  0  0  0  0  0  0
   10.4813    2.3285   23.0759 C   0  0  0  0  0  0
   10.9120    0.9953   22.9835 C   0  0  0  0  0  0
    8.7715    0.4412   26.2893 H   0  0  0  0  0  0
   10.2436   -0.4527   25.9829 H   0  0  0  0  0  0
   10.1447    1.2617   25.5721 H   0  0  0  0  0  0
    7.9075    1.1902   22.6100 H   0  0  0  0  0  0
    7.9716   -0.5144   19.2520 H   0  0  0  0  0  0
    4.5560    1.2867   17.9083 H   0  0  0  0  0  0
    3.1973    2.8487   19.3211 H   0  0  0  0  0  0
    2.8617    3.9948   21.4852 H   0  0  0  0  0  0
    4.4488    3.6590   23.3349 H   0  0  0  0  0  0
    6.3961    2.1901   23.0680 H   0  0  0  0  0  0
   10.1532   -2.4012   23.2414 H   0  0  0  0  0  0
   11.1519   -1.5899   24.3972 H   0  0  0  0  0  0
   11.7004   -1.5645   21.4056 H   0  0  0  0  0  0
   12.5568   -2.4998   22.6132 H   0  0  0  0  0  0
   14.2124    1.6445   22.3613 H   0  0  0  0  0  0
    9.4453    2.5416   23.2978 H   0  0  0  0  0  0
  1  2  1  0  0  0
  1 28  1  0  0  0
  1 29  1  0  0  0
  1 30  1  0  0  0
  2  3  1  0  0  0
  3 27  1  0  0  0
  3  4  1  0  0  0
  3 17  1  0  0  0
  4  5  2  0  0  0
  4  6  1  0  0  0
  6  7  1  0  0  0
  6 31  1  0  0  0
  7 16  2  0  0  0
  7  8  1  0  0  0
  8  9  2  0  0  0
  8 32  1  0  0  0
  9 10  1  0  0  0
 10 11  2  0  0  0
 10 33  1  0  0  0
 11 16  1  0  0  0
 11 12  1  0  0  0
 12 13  2  0  0  0
 12 34  1  0  0  0
 13 14  1  0  0  0
 13 35  1  0  0  0
 14 15  2  0  0  0
 14 36  1  0  0  0
 15 16  1  0  0  0
 15 37  1  0  0  0
 17 18  1  0  0  0
 17 38  1  0  0  0
 17 39  1  0  0  0
 18 19  1  0  0  0
 18 40  1  0  0  0
 18 41  1  0  0  0
 19 20  1  0  0  0
 20 27  2  0  0  0
 20 21  1  0  0  0
 21 22  2  0  0  0
 21 42  1  0  0  0
 22 23  1  0  0  0
 22 24  1  0  0  0
 24 25  1  0  0  0
 24 26  2  0  0  0
 26 27  1  0  0  0
 26 43  1  0  0  0
M  END
> <r_i_docking_score>
-5.73675608849071

$$$$
ligprep_5.maegz:120
                    3D
 Schrodinger Suite 2020-4.
 43 46  0  0  1  0            999 V2000
    9.5948    0.3215   25.5833 C   0  0  0  0  0  0
    9.0582    0.0019   24.2987 O   0  0  0  0  0  0
    9.9518   -0.2031   23.1890 C   0  0  2  0  0  0
    9.0297   -0.3207   21.9224 C   0  0  0  0  0  0
    9.2011   -1.2289   21.1078 O   0  0  0  0  0  0
    8.0288    0.5861   21.8109 N   0  0  0  0  0  0
    7.0695    0.7607   20.7798 C   0  0  0  0  0  0
    7.1622    0.1483   19.5160 C   0  0  0  0  0  0
    6.2777    0.3294   18.5111 N   0  0  0  0  0  0
    5.2367    1.1532   18.7344 C   0  0  0  0  0  0
    5.0027    1.8315   19.9483 C   0  0  0  0  0  0
    3.8912    2.6865   20.1349 C   0  0  0  0  0  0
    3.7039    3.3313   21.3549 C   0  0  0  0  0  0
    4.6084    3.1462   22.3959 C   0  0  0  0  0  0
    5.7157    2.3162   22.2391 C   0  0  0  0  0  0
    5.9477    1.6327   21.0074 C   0  0  0  0  0  0
   10.7770   -1.5170   23.3806 C   0  0  0  0  0  0
   12.0052   -1.5734   22.4508 C   0  0  0  0  0  0
   12.8739   -0.4732   22.7032 O   0  0  0  0  0  0
   12.2812    0.7755   22.7151 C   0  0  0  0  0  0
   13.1679    1.8398   22.5540 C   0  0  0  0  0  0
   12.7161    3.1538   22.6588 C   0  0  0  0  0  0
   13.8495    4.4497   22.4586 Cl  0  0  0  0  0  0
   11.3671    3.3987   22.9331 C   0  0  0  0  0  0
   10.7675    5.0120   23.1180 Cl  0  0  0  0  0  0
   10.4813    2.3285   23.0759 C   0  0  0  0  0  0
   10.9120    0.9953   22.9835 C   0  0  0  0  0  0
    8.7715    0.4412   26.2893 H   0  0  0  0  0  0
   10.2436   -0.4527   25.9829 H   0  0  0  0  0  0
   10.1447    1.2617   25.5721 H   0  0  0  0  0  0
    7.9075    1.1902   22.6100 H   0  0  0  0  0  0
    7.9716   -0.5144   19.2520 H   0  0  0  0  0  0
    4.5560    1.2867   17.9083 H   0  0  0  0  0  0
    3.1973    2.8487   19.3211 H   0  0  0  0  0  0
    2.8617    3.9948   21.4852 H   0  0  0  0  0  0
    4.4488    3.6590   23.3349 H   0  0  0  0  0  0
    6.3961    2.1901   23.0680 H   0  0  0  0  0  0
   10.1532   -2.4012   23.2414 H   0  0  0  0  0  0
   11.1519   -1.5899   24.3972 H   0  0  0  0  0  0
   11.7004   -1.5645   21.4056 H   0  0  0  0  0  0
   12.5568   -2.4998   22.6132 H   0  0  0  0  0  0
   14.2124    1.6445   22.3613 H   0  0  0  0  0  0
    9.4453    2.5416   23.2978 H   0  0  0  0  0  0
  1  2  1  0  0  0
  1 28  1  0  0  0
  1 29  1  0  0  0
  1 30  1  0  0  0
  2  3  1  0  0  0
  3 27  1  0  0  0
  3  4  1  0  0  0
  3 17  1  0  0  0
  4  5  2  0  0  0
  4  6  1  0  0  0
  6  7  1  0  0  0
  6 31  1  0  0  0
  7 16  2  0  0  0
  7  8  1  0  0  0
  8  9  2  0  0  0
  8 32  1  0  0  0
  9 10  1  0  0  0
 10 11  2  0  0  0
 10 33  1  0  0  0
 11 16  1  0  0  0
 11 12  1  0  0  0
 12 13  2  0  0  0
 12 34  1  0  0  0
 13 14  1  0  0  0
 13 35  1  0  0  0
 14 15  2  0  0  0
 14 36  1  0  0  0
 15 16  1  0  0  0
 15 37  1  0  0  0
 17 18  1  0  0  0
 17 38  1  0  0  0
 17 39  1  0  0  0
 18 19  1  0  0  0
 18 40  1  0  0  0
 18 41  1  0  0  0
 19 20  1  0  0  0
 20 27  2  0  0  0
 20 21  1  0  0  0
 21 22  2  0  0  0
 21 42  1  0  0  0
 22 23  1  0  0  0
 22 24  1  0  0  0
 24 25  1  0  0  0
 24 26  2  0  0  0
 26 27  1  0  0  0
 26 43  1  0  0  0
M  END
> <r_i_docking_score>
-5.73675608849071

$$$$
ligprep_5.maegz:121
                    3D
 Schrodinger Suite 2020-4.
 33 35  0  0  1  0            999 V2000
    9.7069    0.5134   21.5178 O   0  0  0  0  0  0
   10.4099   -0.1274   22.2990 C   0  0  0  0  0  0
   11.7840    0.4391   22.7055 C   0  0  0  0  0  0
   11.7831    1.9529   22.9629 C   0  0  0  0  0  0
   10.8238    2.5307   23.8048 C   0  0  0  0  0  0
   10.8241    3.9021   24.0435 C   0  0  0  0  0  0
   11.8026    4.7127   23.4738 C   0  0  0  0  0  0
   11.8003    6.4001   23.8460 Cl  0  0  0  0  0  0
   12.7745    4.1519   22.6363 C   0  0  0  0  0  0
   13.9912    5.1443   21.9068 Cl  0  0  0  0  0  0
   12.7621    2.7757   22.3884 C   0  0  0  0  0  0
   10.0699   -1.3134   22.8529 N   0  0  0  0  0  0
    8.8588   -2.0443   22.7505 C   0  0  0  0  0  0
    7.8557   -1.7633   21.8033 C   0  0  0  0  0  0
    6.6829   -2.4351   21.7073 N   0  0  0  0  0  0
    6.4604   -3.4307   22.5870 C   0  0  0  0  0  0
    7.3711   -3.8224   23.5860 C   0  0  0  0  0  0
    7.1287   -4.8602   24.5130 C   0  0  0  0  0  0
    8.0056   -5.2515   25.4660 N   0  0  0  0  0  0
    9.1954   -4.6091   25.5152 C   0  0  0  0  0  0
    9.5484   -3.5660   24.6539 C   0  0  0  0  0  0
    8.6175   -3.1262   23.6642 C   0  0  0  0  0  0
   12.4891    0.1988   21.9087 H   0  0  0  0  0  0
   12.1597   -0.0531   23.6022 H   0  0  0  0  0  0
   10.0646    1.9206   24.2704 H   0  0  0  0  0  0
   10.0719    4.3344   24.6891 H   0  0  0  0  0  0
   13.5151    2.3508   21.7429 H   0  0  0  0  0  0
   10.7552   -1.7293   23.4647 H   0  0  0  0  0  0
    7.9721   -0.9968   21.0546 H   0  0  0  0  0  0
    5.5162   -3.9453   22.4940 H   0  0  0  0  0  0
    6.1913   -5.3992   24.4785 H   0  0  0  0  0  0
    9.8908   -4.9643   26.2651 H   0  0  0  0  0  0
   10.5241   -3.1134   24.7106 H   0  0  0  0  0  0
  1  2  2  0  0  0
  2  3  1  0  0  0
  2 12  1  0  0  0
  3  4  1  0  0  0
  3 23  1  0  0  0
  3 24  1  0  0  0
  4 11  2  0  0  0
  4  5  1  0  0  0
  5  6  2  0  0  0
  5 25  1  0  0  0
  6  7  1  0  0  0
  6 26  1  0  0  0
  7  8  1  0  0  0
  7  9  2  0  0  0
  9 10  1  0  0  0
  9 11  1  0  0  0
 11 27  1  0  0  0
 12 13  1  0  0  0
 12 28  1  0  0  0
 13 22  2  0  0  0
 13 14  1  0  0  0
 14 15  2  0  0  0
 14 29  1  0  0  0
 15 16  1  0  0  0
 16 17  2  0  0  0
 16 30  1  0  0  0
 17 22  1  0  0  0
 17 18  1  0  0  0
 18 19  2  0  0  0
 18 31  1  0  0  0
 19 20  1  0  0  0
 20 21  2  0  0  0
 20 32  1  0  0  0
 21 22  1  0  0  0
 21 33  1  0  0  0
M  END
> <r_i_docking_score>
-6.29456833133627

$$$$
ligprep_5.maegz:122
                    3D
 Schrodinger Suite 2020-4.
 40 43  0  0  1  0            999 V2000
    5.8937    2.2114   23.5745 C   0  0  0  0  0  0
    5.5121    2.2280   22.1631 N   0  0  0  0  0  0
    4.5030    3.0210   21.7122 C   0  0  0  0  0  0
    3.8153    3.8215   22.3466 O   0  0  0  0  0  0
    4.4153    2.7467   20.3955 N   0  0  0  0  0  0
    5.3014    1.7685   20.0262 C   0  0  0  0  0  0
    5.5639    1.1469   18.8090 C   0  0  0  0  0  0
    6.5282    0.1961   18.7010 N   0  0  0  0  0  0
    7.2460   -0.1237   19.8120 C   0  0  0  0  0  0
    7.0323    0.4654   21.0720 C   0  0  0  0  0  0
    7.8389    0.1659   22.1801 N   0  0  0  0  0  0
    8.3607   -1.0316   22.5236 C   0  0  0  0  0  0
    8.1330   -2.0718   21.9048 O   0  0  0  0  0  0
    9.3251   -1.0869   23.7398 C   0  0  2  0  0  0
    8.8928   -0.1891   24.9312 C   0  0  0  0  0  0
    9.3684    1.2692   24.7717 C   0  0  0  0  0  0
   10.7827    1.3314   24.6092 O   0  0  0  0  0  0
   11.3328    0.4821   23.6675 C   0  0  0  0  0  0
   12.5861    0.8603   23.1889 C   0  0  0  0  0  0
   13.2767    0.0321   22.3089 C   0  0  0  0  0  0
   12.7175   -1.1814   21.9098 C   0  0  0  0  0  0
   13.5701   -2.2086   20.8198 Cl  0  0  0  0  0  0
   11.4559   -1.5494   22.3772 C   0  0  0  0  0  0
   10.7371   -0.7303   23.2626 C   0  0  0  0  0  0
    6.0190    1.4350   21.1435 C   0  0  0  0  0  0
    5.1293    2.6613   24.2103 H   0  0  0  0  0  0
    6.0419    1.1870   23.9168 H   0  0  0  0  0  0
    6.8178    2.7705   23.7166 H   0  0  0  0  0  0
    3.8499    3.2931   19.7609 H   0  0  0  0  0  0
    5.0270    1.3967   17.9067 H   0  0  0  0  0  0
    8.0274   -0.8531   19.6622 H   0  0  0  0  0  0
    8.0084    0.9359   22.8062 H   0  0  0  0  0  0
    9.2700   -2.1327   24.0503 H   0  0  0  0  0  0
    9.3283   -0.5832   25.8513 H   0  0  0  0  0  0
    7.8107   -0.2120   25.0727 H   0  0  0  0  0  0
    9.0954    1.8473   25.6554 H   0  0  0  0  0  0
    8.8979    1.7571   23.9206 H   0  0  0  0  0  0
   13.0265    1.7932   23.5071 H   0  0  0  0  0  0
   14.2382    0.3461   21.9339 H   0  0  0  0  0  0
   11.0189   -2.4754   22.0337 H   0  0  0  0  0  0
  1  2  1  0  0  0
  1 26  1  0  0  0
  1 27  1  0  0  0
  1 28  1  0  0  0
  2 25  1  0  0  0
  2  3  1  0  0  0
  3  4  2  0  0  0
  3  5  1  0  0  0
  5  6  1  0  0  0
  5 29  1  0  0  0
  6 25  2  0  0  0
  6  7  1  0  0  0
  7  8  2  0  0  0
  7 30  1  0  0  0
  8  9  1  0  0  0
  9 10  2  0  0  0
  9 31  1  0  0  0
 10 11  1  0  0  0
 10 25  1  0  0  0
 11 12  1  0  0  0
 11 32  1  0  0  0
 12 13  2  0  0  0
 12 14  1  0  0  0
 14 24  1  0  0  0
 14 15  1  0  0  0
 14 33  1  0  0  0
 15 16  1  0  0  0
 15 34  1  0  0  0
 15 35  1  0  0  0
 16 17  1  0  0  0
 16 36  1  0  0  0
 16 37  1  0  0  0
 17 18  1  0  0  0
 18 24  2  0  0  0
 18 19  1  0  0  0
 19 20  2  0  0  0
 19 38  1  0  0  0
 20 21  1  0  0  0
 20 39  1  0  0  0
 21 22  1  0  0  0
 21 23  2  0  0  0
 23 24  1  0  0  0
 23 40  1  0  0  0
M  END
> <r_i_docking_score>
-5.939331521377

$$$$
ligprep_5.maegz:123
                    3D
 Schrodinger Suite 2020-4.
 37 40  0  0  1  0            999 V2000
    8.0760   -2.0956   21.9086 O   0  0  0  0  0  0
    8.3122   -1.0628   22.5363 C   0  0  0  0  0  0
    7.8284    0.1473   22.1839 N   0  0  0  0  0  0
    7.0392    0.4562   21.0671 C   0  0  0  0  0  0
    7.2444   -0.1255   19.8032 C   0  0  0  0  0  0
    6.5125    0.1990   18.7016 N   0  0  0  0  0  0
    5.5450    1.1469   18.8226 C   0  0  0  0  0  0
    5.2997    1.7681   20.0446 C   0  0  0  0  0  0
    4.4242    2.7471   20.4462 N   0  0  0  0  0  0
    4.5513    3.0060   21.7650 C   0  0  0  0  0  0
    3.9062    3.7983   22.4464 O   0  0  0  0  0  0
    5.5545    2.2022   22.1747 N   0  0  0  0  0  0
    6.0378    1.4283   21.1441 C   0  0  0  0  0  0
    9.2434   -1.1361   23.7772 C   0  0  2  0  0  0
    8.7608   -0.2845   24.9833 C   0  0  0  0  0  0
    9.1845    1.1958   24.8748 C   0  0  0  0  0  0
   10.5953    1.3278   24.7081 O   0  0  0  0  0  0
   11.1896    0.5074   23.7683 C   0  0  0  0  0  0
   12.4320    0.9411   23.3105 C   0  0  0  0  0  0
   13.1707    0.1467   22.4387 C   0  0  0  0  0  0
   12.6685   -1.0858   22.0276 C   0  0  0  0  0  0
   13.5703   -2.0604   20.9300 Cl  0  0  0  0  0  0
   11.4188   -1.5119   22.4725 C   0  0  0  0  0  0
   10.6531   -0.7270   23.3473 C   0  0  0  0  0  0
    8.0144    0.9137   22.8087 H   0  0  0  0  0  0
    8.0244   -0.8530   19.6445 H   0  0  0  0  0  0
    4.9968    1.3949   17.9261 H   0  0  0  0  0  0
    3.8473    3.3030   19.8310 H   0  0  0  0  0  0
    5.8591    2.1524   23.1332 H   0  0  0  0  0  0
    9.2108   -2.1923   24.0530 H   0  0  0  0  0  0
    7.6781   -0.3490   25.1059 H   0  0  0  0  0  0
    9.1960   -0.6893   25.8983 H   0  0  0  0  0  0
    8.6803    1.7006   24.0530 H   0  0  0  0  0  0
    8.8994    1.7259   25.7843 H   0  0  0  0  0  0
   12.8244    1.8925   23.6345 H   0  0  0  0  0  0
   14.1266    0.4934   22.0778 H   0  0  0  0  0  0
   11.0259   -2.4525   22.1131 H   0  0  0  0  0  0
  1  2  2  0  0  0
  2  3  1  0  0  0
  2 14  1  0  0  0
  3  4  1  0  0  0
  3 25  1  0  0  0
  4 13  2  0  0  0
  4  5  1  0  0  0
  5  6  2  0  0  0
  5 26  1  0  0  0
  6  7  1  0  0  0
  7  8  2  0  0  0
  7 27  1  0  0  0
  8 13  1  0  0  0
  8  9  1  0  0  0
  9 10  1  0  0  0
  9 28  1  0  0  0
 10 11  2  0  0  0
 10 12  1  0  0  0
 12 13  1  0  0  0
 12 29  1  0  0  0
 14 24  1  0  0  0
 14 15  1  0  0  0
 14 30  1  0  0  0
 15 16  1  0  0  0
 15 31  1  0  0  0
 15 32  1  0  0  0
 16 17  1  0  0  0
 16 33  1  0  0  0
 16 34  1  0  0  0
 17 18  1  0  0  0
 18 24  2  0  0  0
 18 19  1  0  0  0
 19 20  2  0  0  0
 19 35  1  0  0  0
 20 21  1  0  0  0
 20 36  1  0  0  0
 21 22  1  0  0  0
 21 23  2  0  0  0
 23 24  1  0  0  0
 23 37  1  0  0  0
M  END
> <r_i_docking_score>
-5.99291910955303

$$$$
ligprep_5.maegz:124
                    3D
 Schrodinger Suite 2020-4.
 36 38  0  0  1  0            999 V2000
    8.5354   -0.8531   26.2315 N   0  0  0  0  0  0
    8.4662   -0.9043   24.7533 C   0  0  1  0  0  0
    9.8842   -0.5465   24.2374 C   0  0  0  0  0  0
   10.7700   -1.3993   24.3079 O   0  0  0  0  0  0
   10.0587    0.7118   23.7749 N   0  0  0  0  0  0
   11.2446    1.3056   23.2837 C   0  0  0  0  0  0
   12.3202    0.5536   22.7763 C   0  0  0  0  0  0
   13.4692    1.0879   22.3079 N   0  0  0  0  0  0
   13.5695    2.4324   22.3080 C   0  0  0  0  0  0
   12.5729    3.3164   22.7648 C   0  0  0  0  0  0
   12.7417    4.7221   22.7513 C   0  0  0  0  0  0
   11.7295    5.5460   23.2330 C   0  0  0  0  0  0
   10.5490    5.0017   23.7261 C   0  0  0  0  0  0
   10.3580    3.6221   23.7528 C   0  0  0  0  0  0
   11.3667    2.7375   23.2722 C   0  0  0  0  0  0
    7.9707   -2.1965   24.1327 C   0  0  0  0  0  0
    8.3882   -3.4417   24.6247 C   0  0  0  0  0  0
    7.9599   -4.6245   24.0239 C   0  0  0  0  0  0
    7.1032   -4.5848   22.9234 C   0  0  0  0  0  0
    6.6109   -6.0736   22.1899 Cl  0  0  0  0  0  0
    6.6627   -3.3485   22.4327 C   0  0  0  0  0  0
    5.5746   -3.2529   21.0909 Cl  0  0  0  0  0  0
    7.1019   -2.1657   23.0333 C   0  0  0  0  0  0
    9.2238   -1.5055   26.5789 H   0  0  0  0  0  0
    8.8156    0.0574   26.5779 H   0  0  0  0  0  0
    7.7849   -0.1036   24.4566 H   0  0  0  0  0  0
    9.2555    1.3199   23.8129 H   0  0  0  0  0  0
   12.2871   -0.5230   22.7117 H   0  0  0  0  0  0
   14.4987    2.8282   21.9250 H   0  0  0  0  0  0
   13.6596    5.1494   22.3725 H   0  0  0  0  0  0
   11.8582    6.6183   23.2235 H   0  0  0  0  0  0
    9.7714    5.6573   24.0915 H   0  0  0  0  0  0
    9.4326    3.2289   24.1450 H   0  0  0  0  0  0
    9.0653   -3.4933   25.4644 H   0  0  0  0  0  0
    8.3039   -5.5740   24.4077 H   0  0  0  0  0  0
    6.7614   -1.2189   22.6386 H   0  0  0  0  0  0
  1  2  1  0  0  0
  1 24  1  0  0  0
  1 25  1  0  0  0
  2  3  1  0  0  0
  2 16  1  0  0  0
  2 26  1  0  0  0
  3  4  2  0  0  0
  3  5  1  0  0  0
  5  6  1  0  0  0
  5 27  1  0  0  0
  6 15  2  0  0  0
  6  7  1  0  0  0
  7  8  2  0  0  0
  7 28  1  0  0  0
  8  9  1  0  0  0
  9 10  2  0  0  0
  9 29  1  0  0  0
 10 15  1  0  0  0
 10 11  1  0  0  0
 11 12  2  0  0  0
 11 30  1  0  0  0
 12 13  1  0  0  0
 12 31  1  0  0  0
 13 14  2  0  0  0
 13 32  1  0  0  0
 14 15  1  0  0  0
 14 33  1  0  0  0
 16 23  2  0  0  0
 16 17  1  0  0  0
 17 18  2  0  0  0
 17 34  1  0  0  0
 18 19  1  0  0  0
 18 35  1  0  0  0
 19 20  1  0  0  0
 19 21  2  0  0  0
 21 22  1  0  0  0
 21 23  1  0  0  0
 23 36  1  0  0  0
M  END
> <r_i_docking_score>
-6.35197967677441

$$$$
ligprep_5.maegz:125
                    3D
 Schrodinger Suite 2020-4.
 42 44  0  0  1  0            999 V2000
    5.4097    0.5721   20.1522 C   0  0  0  0  0  0
    6.8448    0.2970   20.2636 N   0  0  0  0  0  0
    7.2407   -0.6001   19.1757 C   0  0  0  0  0  0
    7.3132   -0.0455   21.6491 C   0  0  1  0  0  0
    6.7097   -1.3598   22.2406 C   0  0  0  0  0  0
    6.5039   -2.3457   21.5272 O   0  0  0  0  0  0
    6.5243   -1.3399   23.5761 N   0  0  0  0  0  0
    6.2212   -2.4677   24.3449 C   0  0  0  0  0  0
    4.8899   -2.7275   24.6780 C   0  0  0  0  0  0
    4.4978   -3.7664   25.4535 N   0  0  0  0  0  0
    5.4622   -4.5843   25.9356 C   0  0  0  0  0  0
    6.8459   -4.4309   25.6824 C   0  0  0  0  0  0
    7.8249   -5.3041   26.2157 C   0  0  0  0  0  0
    9.1708   -5.1123   25.9160 C   0  0  0  0  0  0
    9.5684   -4.0532   25.1078 C   0  0  0  0  0  0
    8.6317   -3.1672   24.5836 C   0  0  0  0  0  0
    7.2434   -3.3363   24.8526 C   0  0  0  0  0  0
    8.7928    0.0781   21.9660 C   0  0  0  0  0  0
    9.7106   -0.8968   21.5514 C   0  0  0  0  0  0
   11.0563   -0.8081   21.9095 C   0  0  0  0  0  0
   11.5082    0.2554   22.6922 C   0  0  0  0  0  0
   13.1860    0.3446   23.1056 Cl  0  0  0  0  0  0
   10.6025    1.2362   23.1143 C   0  0  0  0  0  0
   11.1142    2.5696   24.0909 Cl  0  0  0  0  0  0
    9.2579    1.1437   22.7501 C   0  0  0  0  0  0
    5.0926    1.3016   20.8994 H   0  0  0  0  0  0
    5.1658    0.9887   19.1724 H   0  0  0  0  0  0
    4.8143   -0.3310   20.2938 H   0  0  0  0  0  0
    8.3035   -0.8401   19.2104 H   0  0  0  0  0  0
    6.6844   -1.5392   19.1961 H   0  0  0  0  0  0
    7.0542   -0.1256   18.2116 H   0  0  0  0  0  0
    6.8331    0.7357   22.2435 H   0  0  0  0  0  0
    6.6917   -0.4805   24.0757 H   0  0  0  0  0  0
    4.1016   -2.0815   24.3190 H   0  0  0  0  0  0
    5.1222   -5.4000   26.5568 H   0  0  0  0  0  0
    7.5222   -6.1302   26.8425 H   0  0  0  0  0  0
    9.9144   -5.7939   26.3078 H   0  0  0  0  0  0
   10.6158   -3.9226   24.8812 H   0  0  0  0  0  0
    8.9626   -2.3510   23.9597 H   0  0  0  0  0  0
    9.3808   -1.7419   20.9608 H   0  0  0  0  0  0
   11.7450   -1.5708   21.5725 H   0  0  0  0  0  0
    8.5720    1.9074   23.0891 H   0  0  0  0  0  0
  1  2  1  0  0  0
  1 26  1  0  0  0
  1 27  1  0  0  0
  1 28  1  0  0  0
  2  3  1  0  0  0
  2  4  1  0  0  0
  3 29  1  0  0  0
  3 30  1  0  0  0
  3 31  1  0  0  0
  4  5  1  0  0  0
  4 18  1  0  0  0
  4 32  1  0  0  0
  5  6  2  0  0  0
  5  7  1  0  0  0
  7  8  1  0  0  0
  7 33  1  0  0  0
  8 17  2  0  0  0
  8  9  1  0  0  0
  9 10  2  0  0  0
  9 34  1  0  0  0
 10 11  1  0  0  0
 11 12  2  0  0  0
 11 35  1  0  0  0
 12 17  1  0  0  0
 12 13  1  0  0  0
 13 14  2  0  0  0
 13 36  1  0  0  0
 14 15  1  0  0  0
 14 37  1  0  0  0
 15 16  2  0  0  0
 15 38  1  0  0  0
 16 17  1  0  0  0
 16 39  1  0  0  0
 18 25  2  0  0  0
 18 19  1  0  0  0
 19 20  2  0  0  0
 19 40  1  0  0  0
 20 21  1  0  0  0
 20 41  1  0  0  0
 21 22  1  0  0  0
 21 23  2  0  0  0
 23 24  1  0  0  0
 23 25  1  0  0  0
 25 42  1  0  0  0
M  END
> <r_i_docking_score>
-6.15842794655746

$$$$
ligprep_5.maegz:126
                    3D
 Schrodinger Suite 2020-4.
 41 43  0  0  1  0            999 V2000
    5.0367    1.3862   20.2545 C   0  0  0  0  0  0
    6.1344    0.3310   20.2935 C   0  0  0  0  0  0
    7.0879    0.4000   19.5196 O   0  0  0  0  0  0
    5.9986   -0.6479   21.2125 N   0  0  0  0  0  0
    6.9738   -1.7388   21.4369 C   0  0  1  0  0  0
    8.2226   -1.2226   22.1935 C   0  0  0  0  0  0
    8.0983   -0.8252   23.3557 O   0  0  0  0  0  0
    9.3835   -1.2520   21.5080 N   0  0  0  0  0  0
   10.6175   -0.7707   21.9701 C   0  0  0  0  0  0
   11.6989   -1.6558   21.9582 C   0  0  0  0  0  0
   12.9592   -1.3172   22.3076 N   0  0  0  0  0  0
   13.1741   -0.0421   22.6943 C   0  0  0  0  0  0
   12.1837    0.9627   22.7346 C   0  0  0  0  0  0
   12.4721    2.2976   23.1068 C   0  0  0  0  0  0
   11.4662    3.2572   23.0995 C   0  0  0  0  0  0
   10.1751    2.9197   22.7101 C   0  0  0  0  0  0
    9.8639    1.6182   22.3286 C   0  0  0  0  0  0
   10.8548    0.5962   22.3515 C   0  0  0  0  0  0
    6.3544   -2.9449   22.1238 C   0  0  0  0  0  0
    5.2236   -2.8533   22.9484 C   0  0  0  0  0  0
    4.6915   -3.9890   23.5593 C   0  0  0  0  0  0
    5.2839   -5.2366   23.3637 C   0  0  0  0  0  0
    4.5963   -6.6234   24.1399 Cl  0  0  0  0  0  0
    6.4235   -5.3423   22.5606 C   0  0  0  0  0  0
    7.2076   -6.8584   22.3076 Cl  0  0  0  0  0  0
    6.9497   -4.2024   21.9540 C   0  0  0  0  0  0
    4.1510    0.9893   19.7581 H   0  0  0  0  0  0
    4.7608    1.6986   21.2625 H   0  0  0  0  0  0
    5.3727    2.2674   19.7062 H   0  0  0  0  0  0
    5.2414   -0.5686   21.8776 H   0  0  0  0  0  0
    7.2683   -2.0529   20.4361 H   0  0  0  0  0  0
    9.3939   -1.6856   20.5969 H   0  0  0  0  0  0
   11.5663   -2.6805   21.6430 H   0  0  0  0  0  0
   14.1880    0.2047   22.9625 H   0  0  0  0  0  0
   13.4819    2.5692   23.3873 H   0  0  0  0  0  0
   11.6893    4.2756   23.3791 H   0  0  0  0  0  0
    9.4090    3.6792   22.6839 H   0  0  0  0  0  0
    8.8576    1.3969   22.0133 H   0  0  0  0  0  0
    4.7692   -1.8971   23.1457 H   0  0  0  0  0  0
    3.8229   -3.8980   24.1960 H   0  0  0  0  0  0
    7.8382   -4.2995   21.3454 H   0  0  0  0  0  0
  1  2  1  0  0  0
  1 27  1  0  0  0
  1 28  1  0  0  0
  1 29  1  0  0  0
  2  3  2  0  0  0
  2  4  1  0  0  0
  4  5  1  0  0  0
  4 30  1  0  0  0
  5  6  1  0  0  0
  5 19  1  0  0  0
  5 31  1  0  0  0
  6  7  2  0  0  0
  6  8  1  0  0  0
  8  9  1  0  0  0
  8 32  1  0  0  0
  9 18  2  0  0  0
  9 10  1  0  0  0
 10 11  2  0  0  0
 10 33  1  0  0  0
 11 12  1  0  0  0
 12 13  2  0  0  0
 12 34  1  0  0  0
 13 18  1  0  0  0
 13 14  1  0  0  0
 14 15  2  0  0  0
 14 35  1  0  0  0
 15 16  1  0  0  0
 15 36  1  0  0  0
 16 17  2  0  0  0
 16 37  1  0  0  0
 17 18  1  0  0  0
 17 38  1  0  0  0
 19 26  2  0  0  0
 19 20  1  0  0  0
 20 21  2  0  0  0
 20 39  1  0  0  0
 21 22  1  0  0  0
 21 40  1  0  0  0
 22 23  1  0  0  0
 22 24  2  0  0  0
 24 25  1  0  0  0
 24 26  1  0  0  0
 26 41  1  0  0  0
M  END
> <r_i_docking_score>
-7.43173518364083

$$$$
ligprep_5.maegz:127
                    3D
 Schrodinger Suite 2020-4.
 46 49  0  0  1  0            999 V2000
   12.1403   -0.3843   22.7473 O   0  0  0  0  0  0
   10.9999    0.0841   22.7318 C   0  0  0  0  0  0
   10.6879    1.3937   22.8701 N   0  0  0  0  0  0
   11.5347    2.5168   22.9287 C   0  0  0  0  0  0
   12.8165    2.5231   22.3597 C   0  0  0  0  0  0
   13.6145    3.6106   22.3079 N   0  0  0  0  0  0
   13.1625    4.7495   22.8678 C   0  0  0  0  0  0
   11.9067    4.8860   23.4922 C   0  0  0  0  0  0
   11.4807    6.1001   24.0798 C   0  0  0  0  0  0
   10.2210    6.1857   24.6645 C   0  0  0  0  0  0
    9.3742    5.0828   24.6835 C   0  0  0  0  0  0
    9.7726    3.8706   24.1232 C   0  0  0  0  0  0
   11.0535    3.7370   23.5123 C   0  0  0  0  0  0
    9.7935   -0.8733   22.5429 C   0  0  2  0  0  0
    9.1501   -0.4678   21.2661 N   0  0  2  0  0  0
    7.8601   -1.0715   20.9651 C   0  0  0  0  0  0
    7.3867   -0.4837   19.6266 C   0  0  0  0  0  0
    5.9192   -0.2507   19.3752 C   0  0  0  0  0  0
    6.8599    0.9275   19.5619 C   0  0  0  0  0  0
    8.9589   -0.9489   23.8040 C   0  0  0  0  0  0
    7.9757    0.0098   24.0828 C   0  0  0  0  0  0
    7.1932   -0.0910   25.2302 C   0  0  0  0  0  0
    7.3811   -1.1508   26.1162 C   0  0  0  0  0  0
    6.3601   -1.2518   27.5061 Cl  0  0  0  0  0  0
    8.3697   -2.1097   25.8563 C   0  0  0  0  0  0
    8.6328   -3.4498   26.9175 Cl  0  0  0  0  0  0
    9.1548   -1.9995   24.7076 C   0  0  0  0  0  0
    9.7018    1.6023   22.8659 H   0  0  0  0  0  0
   13.2293    1.6454   21.8857 H   0  0  0  0  0  0
   13.8322    5.5952   22.8182 H   0  0  0  0  0  0
   12.1374    6.9581   24.0652 H   0  0  0  0  0  0
    9.8959    7.1177   25.1041 H   0  0  0  0  0  0
    8.3979    5.1676   25.1383 H   0  0  0  0  0  0
    9.1012    3.0265   24.1610 H   0  0  0  0  0  0
   10.1951   -1.8728   22.3551 H   0  0  0  0  0  0
    9.7630   -0.7841   20.5220 H   0  0  0  0  0  0
    7.9324   -2.1572   20.9145 H   0  0  0  0  0  0
    7.1388   -0.8294   21.7448 H   0  0  0  0  0  0
    7.9726   -0.8518   18.7812 H   0  0  0  0  0  0
    5.5305   -0.4538   18.3774 H   0  0  0  0  0  0
    5.1964   -0.4766   20.1607 H   0  0  0  0  0  0
    6.8071    1.5121   20.4814 H   0  0  0  0  0  0
    7.1217    1.5363   18.6983 H   0  0  0  0  0  0
    7.7998    0.8242   23.3950 H   0  0  0  0  0  0
    6.4288    0.6476   25.4228 H   0  0  0  0  0  0
    9.9100   -2.7469   24.5100 H   0  0  0  0  0  0
  1  2  2  0  0  0
  2  3  1  0  0  0
  2 14  1  0  0  0
  3  4  1  0  0  0
  3 28  1  0  0  0
  4 13  2  0  0  0
  4  5  1  0  0  0
  5  6  2  0  0  0
  5 29  1  0  0  0
  6  7  1  0  0  0
  7  8  2  0  0  0
  7 30  1  0  0  0
  8 13  1  0  0  0
  8  9  1  0  0  0
  9 10  2  0  0  0
  9 31  1  0  0  0
 10 11  1  0  0  0
 10 32  1  0  0  0
 11 12  2  0  0  0
 11 33  1  0  0  0
 12 13  1  0  0  0
 12 34  1  0  0  0
 14 15  1  0  0  0
 14 20  1  0  0  0
 14 35  1  0  0  0
 15 16  1  0  0  0
 15 36  1  0  0  0
 16 17  1  0  0  0
 16 37  1  0  0  0
 16 38  1  0  0  0
 17 19  1  0  0  0
 17 18  1  0  0  0
 17 39  1  0  0  0
 18 19  1  0  0  0
 18 40  1  0  0  0
 18 41  1  0  0  0
 19 42  1  0  0  0
 19 43  1  0  0  0
 20 27  2  0  0  0
 20 21  1  0  0  0
 21 22  2  0  0  0
 21 44  1  0  0  0
 22 23  1  0  0  0
 22 45  1  0  0  0
 23 24  1  0  0  0
 23 25  2  0  0  0
 25 26  1  0  0  0
 25 27  1  0  0  0
 27 46  1  0  0  0
M  END
> <r_i_docking_score>
-6.06245351611906

$$$$
ligprep_5.maegz:128
                    3D
 Schrodinger Suite 2020-4.
 36 39  0  0  1  0            999 V2000
    7.8391   -0.1997   25.5371 O   0  0  0  0  0  0
    8.8603   -0.0838   24.8617 C   0  0  0  0  0  0
    9.9669    0.5648   25.2240 N   0  0  0  0  0  0
   11.0563    0.4458   24.2985 C   0  0  2  0  0  0
   11.5912    1.7450   23.6764 C   0  0  0  0  0  0
   12.7277    1.6806   22.8619 C   0  0  0  0  0  0
   13.2724    2.8365   22.3078 C   0  0  0  0  0  0
   12.6976    4.0821   22.5643 C   0  0  0  0  0  0
   13.4417    5.5005   21.9057 Cl  0  0  0  0  0  0
   11.5477    4.1599   23.3603 C   0  0  0  0  0  0
   10.7935    5.6814   23.6931 Cl  0  0  0  0  0  0
   10.9995    2.9962   23.9079 C   0  0  0  0  0  0
   10.4317   -0.4802   23.2761 C   0  0  0  0  0  0
   10.9907   -0.9047   22.2640 O   0  0  0  0  0  0
    9.1540   -0.6800   23.6778 N   0  0  0  0  0  0
    8.2109   -1.4081   22.9279 C   0  0  0  0  0  0
    7.8778   -2.7130   23.3168 C   0  0  0  0  0  0
    6.9753   -3.4854   22.6676 N   0  0  0  0  0  0
    6.3694   -2.9524   21.5824 C   0  0  0  0  0  0
    6.6125   -1.6539   21.0808 C   0  0  0  0  0  0
    5.9712   -1.1481   19.9237 C   0  0  0  0  0  0
    6.2353    0.1425   19.4841 C   0  0  0  0  0  0
    7.1392    0.9441   20.1671 C   0  0  0  0  0  0
    7.8046    0.4718   21.2944 C   0  0  0  0  0  0
    7.5618   -0.8454   21.7784 C   0  0  0  0  0  0
    9.9645    1.2706   25.9469 H   0  0  0  0  0  0
   11.8590   -0.0532   24.8370 H   0  0  0  0  0  0
   13.2054    0.7313   22.6631 H   0  0  0  0  0  0
   14.1615    2.7559   21.7008 H   0  0  0  0  0  0
   10.1143    3.0807   24.5215 H   0  0  0  0  0  0
    8.3376   -3.1634   24.1856 H   0  0  0  0  0  0
    5.6712   -3.5980   21.0735 H   0  0  0  0  0  0
    5.2639   -1.7677   19.3907 H   0  0  0  0  0  0
    5.7325    0.5282   18.6078 H   0  0  0  0  0  0
    7.3224    1.9469   19.8166 H   0  0  0  0  0  0
    8.5020    1.1161   21.8070 H   0  0  0  0  0  0
  1  2  2  0  0  0
  2 15  1  0  0  0
  2  3  1  0  0  0
  3  4  1  0  0  0
  3 26  1  0  0  0
  4  5  1  0  0  0
  4 13  1  0  0  0
  4 27  1  0  0  0
  5 12  2  0  0  0
  5  6  1  0  0  0
  6  7  2  0  0  0
  6 28  1  0  0  0
  7  8  1  0  0  0
  7 29  1  0  0  0
  8  9  1  0  0  0
  8 10  2  0  0  0
 10 11  1  0  0  0
 10 12  1  0  0  0
 12 30  1  0  0  0
 13 14  2  0  0  0
 13 15  1  0  0  0
 15 16  1  0  0  0
 16 25  2  0  0  0
 16 17  1  0  0  0
 17 18  2  0  0  0
 17 31  1  0  0  0
 18 19  1  0  0  0
 19 20  2  0  0  0
 19 32  1  0  0  0
 20 25  1  0  0  0
 20 21  1  0  0  0
 21 22  2  0  0  0
 21 33  1  0  0  0
 22 23  1  0  0  0
 22 34  1  0  0  0
 23 24  2  0  0  0
 23 35  1  0  0  0
 24 25  1  0  0  0
 24 36  1  0  0  0
M  END
> <r_i_docking_score>
-6.55565462493615

$$$$
ligprep_5.maegz:129
                    3D
 Schrodinger Suite 2020-4.
 63 66  0  0  1  0            999 V2000
   11.5347    4.5876   23.8171 C   0  0  0  0  0  0
   12.4438    3.5066   23.1910 C   0  0  0  0  0  0
   13.0975    3.9797   21.8971 C   0  0  0  0  0  0
   11.8204    2.1839   23.0215 N   0  0  1  0  0  0
   11.6463    1.3977   24.2495 C   0  0  0  0  0  0
   11.0212    0.0061   23.9762 C   0  0  0  0  0  0
    9.8135    0.1297   23.2255 O   0  0  0  0  0  0
   10.0453    0.8072   21.9893 C   0  0  1  0  0  0
    8.7100    0.8976   21.2429 C   0  0  0  0  0  0
    8.3691    1.9472   20.7084 O   0  0  0  0  0  0
    7.9413   -0.1950   21.1927 N   0  0  0  0  0  0
    6.5928   -0.3173   20.5856 C   0  0  1  0  0  0
    6.7798   -0.4540   19.0445 C   0  0  0  0  0  0
    6.0578   -1.6568   21.2099 C   0  0  0  0  0  0
    5.5697   -2.5410   20.4985 O   0  0  0  0  0  0
    6.2052   -1.8086   22.5487 N   0  0  0  0  0  0
    6.0436   -2.9987   23.2716 C   0  0  0  0  0  0
    4.7998   -3.6347   23.3290 C   0  0  0  0  0  0
    4.5485   -4.7390   24.0706 N   0  0  0  0  0  0
    5.5684   -5.2364   24.8069 C   0  0  0  0  0  0
    6.8758   -4.7002   24.8337 C   0  0  0  0  0  0
    7.9180   -5.2531   25.6178 C   0  0  0  0  0  0
    9.1990   -4.7146   25.5593 C   0  0  0  0  0  0
    9.4654   -3.6158   24.7500 C   0  0  0  0  0  0
    8.4522   -3.0211   24.0019 C   0  0  0  0  0  0
    7.1305   -3.5485   24.0232 C   0  0  0  0  0  0
    5.6410    0.8806   20.9333 C   0  0  0  0  0  0
    5.7119    1.5088   22.1936 C   0  0  0  0  0  0
    4.9364    2.6263   22.4971 C   0  0  0  0  0  0
    4.0506    3.1410   21.5560 C   0  0  0  0  0  0
    3.0833    4.5123   21.9829 Cl  0  0  0  0  0  0
    3.9569    2.5377   20.2958 C   0  0  0  0  0  0
    2.8610    3.1444   19.1047 Cl  0  0  0  0  0  0
    4.7531    1.4301   19.9885 C   0  0  0  0  0  0
   10.5682    2.2316   22.2780 C   0  0  0  0  0  0
   12.1206    5.4581   24.1135 H   0  0  0  0  0  0
   10.7745    4.9321   23.1162 H   0  0  0  0  0  0
   11.0234    4.2256   24.7071 H   0  0  0  0  0  0
   13.2932    3.3672   23.8543 H   0  0  0  0  0  0
   13.7328    4.8490   22.0688 H   0  0  0  0  0  0
   13.7270    3.1807   21.5083 H   0  0  0  0  0  0
   12.3698    4.2485   21.1304 H   0  0  0  0  0  0
   11.0407    1.9479   24.9712 H   0  0  0  0  0  0
   12.6254    1.2599   24.7070 H   0  0  0  0  0  0
   10.7948   -0.4879   24.9213 H   0  0  0  0  0  0
   11.7270   -0.6399   23.4499 H   0  0  0  0  0  0
   10.7141    0.2240   21.3537 H   0  0  0  0  0  0
    8.3442   -1.0505   21.5477 H   0  0  0  0  0  0
    5.8732   -0.7819   18.5357 H   0  0  0  0  0  0
    7.0844    0.4914   18.5923 H   0  0  0  0  0  0
    7.5506   -1.1812   18.7946 H   0  0  0  0  0  0
    6.6440   -1.0486   23.0465 H   0  0  0  0  0  0
    3.9697   -3.2396   22.7689 H   0  0  0  0  0  0
    5.3390   -6.1073   25.4036 H   0  0  0  0  0  0
    7.7185   -6.1126   26.2438 H   0  0  0  0  0  0
    9.9961   -5.1574   26.1391 H   0  0  0  0  0  0
   10.4669   -3.2169   24.7075 H   0  0  0  0  0  0
    8.6801   -2.1614   23.3893 H   0  0  0  0  0  0
    6.3873    1.1382   22.9488 H   0  0  0  0  0  0
    5.0183    3.0874   23.4702 H   0  0  0  0  0  0
    4.6508    1.0061   19.0015 H   0  0  0  0  0  0
    9.8198    2.8271   22.8045 H   0  0  0  0  0  0
   10.7134    2.7472   21.3325 H   0  0  0  0  0  0
  1  2  1  0  0  0
  1 36  1  0  0  0
  1 37  1  0  0  0
  1 38  1  0  0  0
  2  3  1  0  0  0
  2  4  1  0  0  0
  2 39  1  0  0  0
  3 40  1  0  0  0
  3 41  1  0  0  0
  3 42  1  0  0  0
  4 35  1  0  0  0
  4  5  1  0  0  0
  5  6  1  0  0  0
  5 43  1  0  0  0
  5 44  1  0  0  0
  6  7  1  0  0  0
  6 45  1  0  0  0
  6 46  1  0  0  0
  7  8  1  0  0  0
  8  9  1  0  0  0
  8 35  1  0  0  0
  8 47  1  0  0  0
  9 10  2  0  0  0
  9 11  1  0  0  0
 11 12  1  0  0  0
 11 48  1  0  0  0
 12 13  1  0  0  0
 12 14  1  0  0  0
 12 27  1  0  0  0
 13 49  1  0  0  0
 13 50  1  0  0  0
 13 51  1  0  0  0
 14 15  2  0  0  0
 14 16  1  0  0  0
 16 17  1  0  0  0
 16 52  1  0  0  0
 17 26  2  0  0  0
 17 18  1  0  0  0
 18 19  2  0  0  0
 18 53  1  0  0  0
 19 20  1  0  0  0
 20 21  2  0  0  0
 20 54  1  0  0  0
 21 26  1  0  0  0
 21 22  1  0  0  0
 22 23  2  0  0  0
 22 55  1  0  0  0
 23 24  1  0  0  0
 23 56  1  0  0  0
 24 25  2  0  0  0
 24 57  1  0  0  0
 25 26  1  0  0  0
 25 58  1  0  0  0
 27 34  2  0  0  0
 27 28  1  0  0  0
 28 29  2  0  0  0
 28 59  1  0  0  0
 29 30  1  0  0  0
 29 60  1  0  0  0
 30 31  1  0  0  0
 30 32  2  0  0  0
 32 33  1  0  0  0
 32 34  1  0  0  0
 34 61  1  0  0  0
 35 62  1  0  0  0
 35 63  1  0  0  0
M  END
> <r_i_docking_score>
-6.36810623034982

$$$$
ligprep_5.maegz:130
                    3D
 Schrodinger Suite 2020-4.
 52 55  0  0  1  0            999 V2000
    5.1186    1.5516   18.4298 C   0  0  0  0  0  0
    5.1195    1.9509   19.8313 N   0  0  0  0  0  0
    6.1415    1.5663   20.6157 N   0  0  0  0  0  0
    5.8813    2.0479   21.8196 C   0  0  0  0  0  0
    6.6719    1.8435   23.0125 C   0  0  0  0  0  0
    6.2255    2.1339   24.1234 O   0  0  0  0  0  0
    7.8844    1.2699   22.8274 N   0  0  0  0  0  0
    8.8989    0.9001   23.8551 C   0  0  1  0  0  0
    9.3471    2.1846   24.6221 C   0  0  0  0  0  0
    8.3142   -0.1307   24.8942 C   0  0  0  0  0  0
    8.9182   -0.3252   25.9522 O   0  0  0  0  0  0
    7.2207   -0.8479   24.5480 N   0  0  0  0  0  0
    6.6539   -1.8890   25.2939 C   0  0  0  0  0  0
    5.3095   -1.7651   25.6556 C   0  0  0  0  0  0
    4.6339   -2.6908   26.3748 N   0  0  0  0  0  0
    5.3069   -3.8027   26.7450 C   0  0  0  0  0  0
    6.6553   -4.0719   26.4196 C   0  0  0  0  0  0
    7.3088   -5.2649   26.8070 C   0  0  0  0  0  0
    8.6270   -5.4903   26.4250 C   0  0  0  0  0  0
    9.3201   -4.5566   25.6698 C   0  0  0  0  0  0
    8.7059   -3.3714   25.2823 C   0  0  0  0  0  0
    7.3596   -3.0880   25.6567 C   0  0  0  0  0  0
   10.0769    0.1841   23.1318 C   0  0  0  0  0  0
    9.8883   -1.0677   22.5159 C   0  0  0  0  0  0
   10.9535   -1.7624   21.9476 C   0  0  0  0  0  0
   12.2296   -1.2058   21.9286 C   0  0  0  0  0  0
   13.5325   -2.0814   21.1979 Cl  0  0  0  0  0  0
   12.4288    0.0600   22.4894 C   0  0  0  0  0  0
   13.9695    0.8308   22.4348 Cl  0  0  0  0  0  0
   11.3674    0.7384   23.0878 C   0  0  0  0  0  0
    4.6609    2.7465   21.8031 C   0  0  0  0  0  0
    4.1590    2.6579   20.5200 C   0  0  0  0  0  0
    2.9148    3.1462   19.9398 C   0  0  0  0  0  0
    1.9225    3.5306   19.4853 N   0  0  0  0  0  0
    4.8399    2.4128   17.8207 H   0  0  0  0  0  0
    6.1039    1.1998   18.1187 H   0  0  0  0  0  0
    4.3874    0.7563   18.2832 H   0  0  0  0  0  0
    8.2728    1.4269   21.9104 H   0  0  0  0  0  0
   10.1594    1.9811   25.3222 H   0  0  0  0  0  0
    9.6806    2.9666   23.9389 H   0  0  0  0  0  0
    8.5371    2.6123   25.2145 H   0  0  0  0  0  0
    6.6624   -0.4682   23.7980 H   0  0  0  0  0  0
    4.7443   -0.8854   25.3800 H   0  0  0  0  0  0
    4.7439   -4.5259   27.3169 H   0  0  0  0  0  0
    6.7778   -6.0077   27.3852 H   0  0  0  0  0  0
    9.1212   -6.4043   26.7073 H   0  0  0  0  0  0
   10.3427   -4.7549   25.3825 H   0  0  0  0  0  0
    9.2680   -2.6661   24.6927 H   0  0  0  0  0  0
    8.9121   -1.5301   22.4989 H   0  0  0  0  0  0
   10.7846   -2.7351   21.5088 H   0  0  0  0  0  0
   11.5766    1.7060   23.5173 H   0  0  0  0  0  0
    4.1868    3.2345   22.6430 H   0  0  0  0  0  0
  1  2  1  0  0  0
  1 35  1  0  0  0
  1 36  1  0  0  0
  1 37  1  0  0  0
  2 32  1  0  0  0
  2  3  1  0  0  0
  3  4  2  0  0  0
  4  5  1  0  0  0
  4 31  1  0  0  0
  5  6  2  0  0  0
  5  7  1  0  0  0
  7  8  1  0  0  0
  7 38  1  0  0  0
  8  9  1  0  0  0
  8 10  1  0  0  0
  8 23  1  0  0  0
  9 39  1  0  0  0
  9 40  1  0  0  0
  9 41  1  0  0  0
 10 11  2  0  0  0
 10 12  1  0  0  0
 12 13  1  0  0  0
 12 42  1  0  0  0
 13 22  2  0  0  0
 13 14  1  0  0  0
 14 15  2  0  0  0
 14 43  1  0  0  0
 15 16  1  0  0  0
 16 17  2  0  0  0
 16 44  1  0  0  0
 17 22  1  0  0  0
 17 18  1  0  0  0
 18 19  2  0  0  0
 18 45  1  0  0  0
 19 20  1  0  0  0
 19 46  1  0  0  0
 20 21  2  0  0  0
 20 47  1  0  0  0
 21 22  1  0  0  0
 21 48  1  0  0  0
 23 30  2  0  0  0
 23 24  1  0  0  0
 24 25  2  0  0  0
 24 49  1  0  0  0
 25 26  1  0  0  0
 25 50  1  0  0  0
 26 27  1  0  0  0
 26 28  2  0  0  0
 28 29  1  0  0  0
 28 30  1  0  0  0
 30 51  1  0  0  0
 31 32  2  0  0  0
 31 52  1  0  0  0
 32 33  1  0  0  0
 33 34  3  0  0  0
M  END
> <r_i_docking_score>
-5.76617000915269

$$$$
ligprep_5.maegz:131
                    3D
 Schrodinger Suite 2020-4.
 53 57  0  0  1  0            999 V2000
    9.6220    2.1294   24.7080 C   0  0  0  0  0  0
    9.1991    0.7978   24.0308 C   0  0  2  0  0  0
    8.0716    1.1251   23.1301 N   0  0  0  0  0  0
    8.0686    1.5028   21.8396 C   0  0  0  0  0  0
    9.0578    1.5543   21.1082 O   0  0  0  0  0  0
    6.7493    1.8085   21.3705 C   0  0  0  0  0  0
    5.7603    2.5026   22.1126 C   0  0  0  0  0  0
    4.6839    2.6391   21.2670 C   0  0  0  0  0  0
    5.0975    2.0767   20.1113 N   0  0  0  0  0  0
    6.3249    1.5506   20.1452 N   0  0  0  0  0  0
    4.0960    2.2184   19.1079 C   0  0  0  0  0  0
    3.0911    3.1476   19.8200 C   0  0  0  0  0  0
    3.4222    3.1468   21.2109 O   0  0  0  0  0  0
    8.6464   -0.1878   25.1235 C   0  0  0  0  0  0
    9.3508   -0.4524   26.1016 O   0  0  0  0  0  0
    7.4589   -0.8079   24.9166 N   0  0  0  0  0  0
    6.9203   -1.8459   25.6877 C   0  0  0  0  0  0
    5.6431   -1.6691   26.2233 C   0  0  0  0  0  0
    4.9861   -2.6145   26.9354 N   0  0  0  0  0  0
    5.6032   -3.8036   27.1075 C   0  0  0  0  0  0
    6.8843   -4.1238   26.6032 C   0  0  0  0  0  0
    7.4809   -5.3933   26.7798 C   0  0  0  0  0  0
    8.7302   -5.6529   26.2243 C   0  0  0  0  0  0
    9.4179   -4.6851   25.5146 C   0  0  0  0  0  0
    8.8515   -3.4339   25.3249 C   0  0  0  0  0  0
    7.5742   -3.1108   25.8664 C   0  0  0  0  0  0
   10.3623    0.0654   23.2989 C   0  0  0  0  0  0
   10.1578   -1.1978   22.7155 C   0  0  0  0  0  0
   11.1958   -1.8750   22.0845 C   0  0  0  0  0  0
   12.4482   -1.2809   21.9648 C   0  0  0  0  0  0
   13.6885   -2.1227   21.1079 Cl  0  0  0  0  0  0
   12.6635   -0.0075   22.4987 C   0  0  0  0  0  0
   14.1707    0.8085   22.3078 Cl  0  0  0  0  0  0
   11.6354    0.6465   23.1745 C   0  0  0  0  0  0
   10.4067    1.9765   25.4477 H   0  0  0  0  0  0
    9.9798    2.8590   23.9804 H   0  0  0  0  0  0
    8.7873    2.5971   25.2309 H   0  0  0  0  0  0
    7.1823    1.2345   23.5906 H   0  0  0  0  0  0
    5.8196    2.8734   23.1244 H   0  0  0  0  0  0
    3.6650    1.2490   18.8649 H   0  0  0  0  0  0
    4.4993    2.6762   18.2029 H   0  0  0  0  0  0
    2.0610    2.8206   19.6702 H   0  0  0  0  0  0
    3.1696    4.1683   19.4390 H   0  0  0  0  0  0
    6.8828   -0.4815   24.1564 H   0  0  0  0  0  0
    5.1143   -0.7368   26.0895 H   0  0  0  0  0  0
    5.0500   -4.5455   27.6650 H   0  0  0  0  0  0
    6.9543   -6.1664   27.3221 H   0  0  0  0  0  0
    9.1692   -6.6331   26.3083 H   0  0  0  0  0  0
   10.3936   -4.9114   25.1084 H   0  0  0  0  0  0
    9.4112   -2.7095   24.7616 H   0  0  0  0  0  0
    9.1834   -1.6645   22.7464 H   0  0  0  0  0  0
   11.0196   -2.8506   21.6524 H   0  0  0  0  0  0
   11.8432    1.6281   23.5709 H   0  0  0  0  0  0
  1  2  1  0  0  0
  1 35  1  0  0  0
  1 36  1  0  0  0
  1 37  1  0  0  0
  2  3  1  0  0  0
  2 14  1  0  0  0
  2 27  1  0  0  0
  3  4  1  0  0  0
  3 38  1  0  0  0
  4  5  2  0  0  0
  4  6  1  0  0  0
  6 10  2  0  0  0
  6  7  1  0  0  0
  7  8  2  0  0  0
  7 39  1  0  0  0
  8 13  1  0  0  0
  8  9  1  0  0  0
  9 10  1  0  0  0
  9 11  1  0  0  0
 11 12  1  0  0  0
 11 40  1  0  0  0
 11 41  1  0  0  0
 12 13  1  0  0  0
 12 42  1  0  0  0
 12 43  1  0  0  0
 14 15  2  0  0  0
 14 16  1  0  0  0
 16 17  1  0  0  0
 16 44  1  0  0  0
 17 26  2  0  0  0
 17 18  1  0  0  0
 18 19  2  0  0  0
 18 45  1  0  0  0
 19 20  1  0  0  0
 20 21  2  0  0  0
 20 46  1  0  0  0
 21 26  1  0  0  0
 21 22  1  0  0  0
 22 23  2  0  0  0
 22 47  1  0  0  0
 23 24  1  0  0  0
 23 48  1  0  0  0
 24 25  2  0  0  0
 24 49  1  0  0  0
 25 26  1  0  0  0
 25 50  1  0  0  0
 27 34  2  0  0  0
 27 28  1  0  0  0
 28 29  2  0  0  0
 28 51  1  0  0  0
 29 30  1  0  0  0
 29 52  1  0  0  0
 30 31  1  0  0  0
 30 32  2  0  0  0
 32 33  1  0  0  0
 32 34  1  0  0  0
 34 53  1  0  0  0
M  END
> <r_i_docking_score>
-6.89963209131386

$$$$
ligprep_5.maegz:132
                    3D
 Schrodinger Suite 2020-4.
 61 65  0  0  1  0            999 V2000
    9.2509    0.0494   25.9084 C   0  0  0  0  0  0
    8.9130   -0.1314   24.4082 C   0  0  2  0  0  0
    8.2855    1.0763   23.8366 N   0  0  0  0  0  0
    8.5478    2.3929   23.9487 C   0  0  0  0  0  0
    9.3956    2.8510   24.7097 O   0  0  0  0  0  0
    7.7314    3.3829   23.0886 C   0  0  0  0  0  0
    6.7987    2.7769   22.1090 N   0  0  0  0  0  0
    5.5119    3.4093   21.8816 C   0  0  0  0  0  0
    4.9059    2.5494   20.8072 C   0  0  0  0  0  0
    6.0122    1.6966   20.4390 N   0  0  0  0  0  0
    5.7913    0.5552   19.5502 C   0  0  0  0  0  0
    5.5287    0.8453   18.0840 C   0  0  0  0  0  0
    6.8137    0.1764   18.4946 C   0  0  0  0  0  0
    7.1696    1.9467   21.0985 C   0  0  0  0  0  0
    8.3039    1.5357   20.8380 O   0  0  0  0  0  0
    7.7773   -1.2045   24.1827 C   0  0  0  0  0  0
    7.1228   -1.2036   23.1313 O   0  0  0  0  0  0
    7.5689   -2.1228   25.1539 N   0  0  0  0  0  0
    6.5861   -3.1295   25.1520 C   0  0  0  0  0  0
    5.7571   -3.1864   26.2760 C   0  0  0  0  0  0
    4.7486   -4.0724   26.4320 N   0  0  0  0  0  0
    4.5406   -4.9603   25.4355 C   0  0  0  0  0  0
    5.3164   -5.0375   24.2580 C   0  0  0  0  0  0
    5.0638   -6.0000   23.2521 C   0  0  0  0  0  0
    5.8736   -6.0533   22.1239 C   0  0  0  0  0  0
    6.9429   -5.1824   21.9761 C   0  0  0  0  0  0
    7.2087   -4.2215   22.9448 C   0  0  0  0  0  0
    6.3919   -4.1043   24.1080 C   0  0  0  0  0  0
   10.2349   -0.5278   23.6823 C   0  0  0  0  0  0
   10.5302   -1.8609   23.3443 C   0  0  0  0  0  0
   11.6865   -2.1875   22.6459 C   0  0  0  0  0  0
   12.6025   -1.2034   22.3023 C   0  0  0  0  0  0
   13.9695   -1.6531   21.3514 Cl  0  0  0  0  0  0
   12.3845    0.1159   22.7049 C   0  0  0  0  0  0
   13.5253    1.3640   22.3444 Cl  0  0  0  0  0  0
   11.2063    0.4426   23.3765 C   0  0  0  0  0  0
    9.5696   -0.8734   26.3925 H   0  0  0  0  0  0
   10.0791    0.7468   26.0141 H   0  0  0  0  0  0
    8.4083    0.4505   26.4729 H   0  0  0  0  0  0
    7.6197    0.8369   23.1133 H   0  0  0  0  0  0
    8.4105    4.0432   22.5463 H   0  0  0  0  0  0
    7.1686    4.0242   23.7662 H   0  0  0  0  0  0
    5.6377    4.4423   21.5442 H   0  0  0  0  0  0
    4.9129    3.4004   22.7935 H   0  0  0  0  0  0
    4.5813    3.1447   19.9520 H   0  0  0  0  0  0
    4.0683    1.9546   21.1750 H   0  0  0  0  0  0
    5.2199   -0.2482   20.0189 H   0  0  0  0  0  0
    5.5547    1.8798   17.7407 H   0  0  0  0  0  0
    4.7704    0.2698   17.5581 H   0  0  0  0  0  0
    6.9577   -0.8822   18.2822 H   0  0  0  0  0  0
    7.7401    0.7415   18.3972 H   0  0  0  0  0  0
    8.0198   -1.9511   26.0377 H   0  0  0  0  0  0
    5.8766   -2.4835   27.0879 H   0  0  0  0  0  0
    3.7245   -5.6520   25.5829 H   0  0  0  0  0  0
    4.2444   -6.6947   23.3655 H   0  0  0  0  0  0
    5.6719   -6.7920   21.3633 H   0  0  0  0  0  0
    7.5780   -5.2526   21.1060 H   0  0  0  0  0  0
    8.0458   -3.5597   22.7962 H   0  0  0  0  0  0
    9.8669   -2.6754   23.5937 H   0  0  0  0  0  0
   11.8651   -3.2155   22.3615 H   0  0  0  0  0  0
   11.0641    1.4741   23.6534 H   0  0  0  0  0  0
  1  2  1  0  0  0
  1 37  1  0  0  0
  1 38  1  0  0  0
  1 39  1  0  0  0
  2  3  1  0  0  0
  2 16  1  0  0  0
  2 29  1  0  0  0
  3  4  1  0  0  0
  3 40  1  0  0  0
  4  5  2  0  0  0
  4  6  1  0  0  0
  6  7  1  0  0  0
  6 41  1  0  0  0
  6 42  1  0  0  0
  7 14  1  0  0  0
  7  8  1  0  0  0
  8  9  1  0  0  0
  8 43  1  0  0  0
  8 44  1  0  0  0
  9 10  1  0  0  0
  9 45  1  0  0  0
  9 46  1  0  0  0
 10 11  1  0  0  0
 10 14  1  0  0  0
 11 13  1  0  0  0
 11 12  1  0  0  0
 11 47  1  0  0  0
 12 13  1  0  0  0
 12 48  1  0  0  0
 12 49  1  0  0  0
 13 50  1  0  0  0
 13 51  1  0  0  0
 14 15  2  0  0  0
 16 17  2  0  0  0
 16 18  1  0  0  0
 18 19  1  0  0  0
 18 52  1  0  0  0
 19 28  2  0  0  0
 19 20  1  0  0  0
 20 21  2  0  0  0
 20 53  1  0  0  0
 21 22  1  0  0  0
 22 23  2  0  0  0
 22 54  1  0  0  0
 23 28  1  0  0  0
 23 24  1  0  0  0
 24 25  2  0  0  0
 24 55  1  0  0  0
 25 26  1  0  0  0
 25 56  1  0  0  0
 26 27  2  0  0  0
 26 57  1  0  0  0
 27 28  1  0  0  0
 27 58  1  0  0  0
 29 36  2  0  0  0
 29 30  1  0  0  0
 30 31  2  0  0  0
 30 59  1  0  0  0
 31 32  1  0  0  0
 31 60  1  0  0  0
 32 33  1  0  0  0
 32 34  2  0  0  0
 34 35  1  0  0  0
 34 36  1  0  0  0
 36 61  1  0  0  0
M  END
> <r_i_docking_score>
-7.48496522342225

$$$$
ligprep_5.maegz:133
                    3D
 Schrodinger Suite 2020-4.
 59 63  0  0  1  0            999 V2000
    7.8912   -0.6221   20.3143 C   0  0  0  0  0  0
    8.1075   -0.7665   21.8484 C   0  0  2  0  0  0
    7.7638   -2.1715   22.2007 N   0  0  0  0  0  0
    8.0944   -2.8803   23.3025 C   0  0  0  0  0  0
    8.8092   -2.4382   24.2018 O   0  0  0  0  0  0
    7.5673   -4.3199   23.3747 C   0  0  0  0  0  0
    7.1399   -4.7079   24.7882 C   0  0  0  0  0  0
    8.0703   -5.2443   25.6820 C   0  0  0  0  0  0
    7.6855   -5.5558   26.9838 C   0  0  0  0  0  0
    6.3688   -5.3267   27.3976 C   0  0  0  0  0  0
    5.9911   -5.6413   28.7200 N   0  0  0  0  0  0
    6.3688   -6.7029   29.5050 C   0  0  0  0  0  0
    5.8465   -6.6136   30.7032 N   0  0  0  0  0  0
    5.0881   -5.4507   30.6781 N   0  0  0  0  0  0
    5.1715   -4.8533   29.4338 N   0  0  0  0  0  0
    5.4403   -4.7797   26.5044 C   0  0  0  0  0  0
    5.8281   -4.4697   25.2031 C   0  0  0  0  0  0
    7.1127    0.1598   22.6584 C   0  0  0  0  0  0
    6.9352   -0.0230   23.8647 O   0  0  0  0  0  0
    6.5121    1.1700   21.9855 N   0  0  0  0  0  0
    5.6183    2.1426   22.4782 C   0  0  0  0  0  0
    5.7159    2.6613   23.7808 C   0  0  0  0  0  0
    4.8800    3.5958   24.2903 N   0  0  0  0  0  0
    3.8951    4.0512   23.4855 C   0  0  0  0  0  0
    3.6843    3.6286   22.1548 C   0  0  0  0  0  0
    2.6286    4.1287   21.3544 C   0  0  0  0  0  0
    2.4753    3.6812   20.0449 C   0  0  0  0  0  0
    3.3556    2.7470   19.5096 C   0  0  0  0  0  0
    4.3950    2.2282   20.2776 C   0  0  0  0  0  0
    4.5852    2.6546   21.6238 C   0  0  0  0  0  0
    9.6005   -0.3943   22.1112 C   0  0  0  0  0  0
    9.9995    0.8905   22.5231 C   0  0  0  0  0  0
   11.3425    1.1908   22.7290 C   0  0  0  0  0  0
   12.3190    0.2167   22.5338 C   0  0  0  0  0  0
   13.9693    0.6598   22.7082 Cl  0  0  0  0  0  0
   11.9493   -1.0729   22.1422 C   0  0  0  0  0  0
   13.1261   -2.3212   21.8993 Cl  0  0  0  0  0  0
   10.6063   -1.3565   21.9093 C   0  0  0  0  0  0
    8.0605    0.3982   19.9634 H   0  0  0  0  0  0
    8.5811   -1.2529   19.7567 H   0  0  0  0  0  0
    6.8825   -0.9081   20.0117 H   0  0  0  0  0  0
    7.2005   -2.6428   21.5110 H   0  0  0  0  0  0
    6.7348   -4.4536   22.6845 H   0  0  0  0  0  0
    8.3631   -4.9780   23.0323 H   0  0  0  0  0  0
    9.0928   -5.4117   25.3758 H   0  0  0  0  0  0
    8.4171   -5.9676   27.6629 H   0  0  0  0  0  0
    6.9978   -7.4849   29.1092 H   0  0  0  0  0  0
    4.4207   -4.5958   26.8100 H   0  0  0  0  0  0
    5.1105   -4.0374   24.5223 H   0  0  0  0  0  0
    6.6515    1.1939   20.9899 H   0  0  0  0  0  0
    6.4943    2.3325   24.4552 H   0  0  0  0  0  0
    3.2420    4.7929   23.9155 H   0  0  0  0  0  0
    1.9509    4.8651   21.7591 H   0  0  0  0  0  0
    1.6835    4.0805   19.4278 H   0  0  0  0  0  0
    3.2415    2.4369   18.4834 H   0  0  0  0  0  0
    5.0541    1.4976   19.8378 H   0  0  0  0  0  0
    9.2780    1.6799   22.6794 H   0  0  0  0  0  0
   11.6273    2.1899   23.0243 H   0  0  0  0  0  0
   10.3471   -2.3504   21.5761 H   0  0  0  0  0  0
  1  2  1  0  0  0
  1 39  1  0  0  0
  1 40  1  0  0  0
  1 41  1  0  0  0
  2  3  1  0  0  0
  2 18  1  0  0  0
  2 31  1  0  0  0
  3  4  1  0  0  0
  3 42  1  0  0  0
  4  5  2  0  0  0
  4  6  1  0  0  0
  6  7  1  0  0  0
  6 43  1  0  0  0
  6 44  1  0  0  0
  7 17  2  0  0  0
  7  8  1  0  0  0
  8  9  2  0  0  0
  8 45  1  0  0  0
  9 10  1  0  0  0
  9 46  1  0  0  0
 10 11  1  0  0  0
 10 16  2  0  0  0
 11 15  1  0  0  0
 11 12  1  0  0  0
 12 13  2  0  0  0
 12 47  1  0  0  0
 13 14  1  0  0  0
 14 15  2  0  0  0
 16 17  1  0  0  0
 16 48  1  0  0  0
 17 49  1  0  0  0
 18 19  2  0  0  0
 18 20  1  0  0  0
 20 21  1  0  0  0
 20 50  1  0  0  0
 21 30  2  0  0  0
 21 22  1  0  0  0
 22 23  2  0  0  0
 22 51  1  0  0  0
 23 24  1  0  0  0
 24 25  2  0  0  0
 24 52  1  0  0  0
 25 30  1  0  0  0
 25 26  1  0  0  0
 26 27  2  0  0  0
 26 53  1  0  0  0
 27 28  1  0  0  0
 27 54  1  0  0  0
 28 29  2  0  0  0
 28 55  1  0  0  0
 29 30  1  0  0  0
 29 56  1  0  0  0
 31 38  2  0  0  0
 31 32  1  0  0  0
 32 33  2  0  0  0
 32 57  1  0  0  0
 33 34  1  0  0  0
 33 58  1  0  0  0
 34 35  1  0  0  0
 34 36  2  0  0  0
 36 37  1  0  0  0
 36 38  1  0  0  0
 38 59  1  0  0  0
M  END
> <r_i_docking_score>
-5.45373265236954

$$$$
ligprep_5.maegz:134
                    3D
 Schrodinger Suite 2020-4.
 60 64  0  0  1  0            999 V2000
    2.6578    3.7086   19.7218 C   0  0  0  0  0  0
    3.8103    2.7370   19.8007 C   0  0  0  0  0  0
    4.3709    2.2273   18.7138 N   0  0  0  0  0  0
    5.2720    1.4199   19.1993 C   0  0  0  0  0  0
    5.2195    1.4517   20.5703 N   0  0  0  0  0  0
    4.3080    2.3473   20.9519 N   0  0  0  0  0  0
    6.1174    0.7410   21.4833 C   0  0  0  0  0  0
    6.6367   -0.5164   20.7157 C   0  0  2  0  0  0
    7.6705   -1.2513   21.5940 C   0  0  0  0  0  0
    7.5420   -2.4572   21.7988 O   0  0  0  0  0  0
    8.6676   -0.5195   22.1289 N   0  0  0  0  0  0
    9.7579   -0.9441   23.0462 C   0  0  1  0  0  0
   10.8747   -1.5885   22.1744 C   0  0  0  0  0  0
   10.3300    0.3716   23.6939 C   0  0  0  0  0  0
   11.4412    0.3480   24.2312 O   0  0  0  0  0  0
    9.5546    1.4834   23.6900 N   0  0  0  0  0  0
    9.9039    2.8039   24.0118 C   0  0  0  0  0  0
    8.9628    3.5251   24.7567 C   0  0  0  0  0  0
    9.1059    4.8206   25.1157 N   0  0  0  0  0  0
   10.2214    5.4580   24.7048 C   0  0  0  0  0  0
   11.2370    4.8717   23.9165 C   0  0  0  0  0  0
   12.3726    5.5981   23.4935 C   0  0  0  0  0  0
   13.3373    4.9829   22.7032 C   0  0  0  0  0  0
   13.1906    3.6603   22.3110 C   0  0  0  0  0  0
   12.0814    2.9240   22.7080 C   0  0  0  0  0  0
   11.0789    3.4955   23.5438 C   0  0  0  0  0  0
    9.2327   -1.8738   24.1803 C   0  0  0  0  0  0
    9.6759   -3.1991   24.3105 C   0  0  0  0  0  0
    9.1698   -4.0356   25.3061 C   0  0  0  0  0  0
    8.2006   -3.5677   26.1900 C   0  0  0  0  0  0
    7.6075   -4.6376   27.4118 Cl  0  0  0  0  0  0
    7.7306   -2.2561   26.0665 C   0  0  0  0  0  0
    6.4981   -1.6335   27.1079 Cl  0  0  0  0  0  0
    8.2495   -1.4206   25.0759 C   0  0  0  0  0  0
    7.2804   -0.0528   19.3800 C   0  0  0  0  0  0
    6.1732    0.4643   18.4271 C   0  0  0  0  0  0
    2.3875    3.9835   18.6983 H   0  0  0  0  0  0
    1.7749    3.3335   20.2426 H   0  0  0  0  0  0
    2.9071    4.6304   20.2527 H   0  0  0  0  0  0
    6.9146    1.4468   21.7229 H   0  0  0  0  0  0
    5.5697    0.4915   22.3929 H   0  0  0  0  0  0
    5.8326   -1.2367   20.5657 H   0  0  0  0  0  0
    8.7508    0.4267   21.7919 H   0  0  0  0  0  0
   11.7286   -1.9175   22.7680 H   0  0  0  0  0  0
   10.5021   -2.4547   21.6232 H   0  0  0  0  0  0
   11.2542   -0.8945   21.4250 H   0  0  0  0  0  0
    8.5736    1.3314   23.5136 H   0  0  0  0  0  0
    8.0539    3.0549   25.1030 H   0  0  0  0  0  0
   10.3083    6.4938   25.0004 H   0  0  0  0  0  0
   12.4887    6.6316   23.7841 H   0  0  0  0  0  0
   14.2109    5.5395   22.3902 H   0  0  0  0  0  0
   13.9472    3.1883   21.7021 H   0  0  0  0  0  0
   12.0015    1.9078   22.3616 H   0  0  0  0  0  0
   10.4250   -3.6079   23.6513 H   0  0  0  0  0  0
    9.5370   -5.0473   25.3898 H   0  0  0  0  0  0
    7.8655   -0.4149   24.9952 H   0  0  0  0  0  0
    7.9700    0.7778   19.5315 H   0  0  0  0  0  0
    7.7647   -0.8712   18.8463 H   0  0  0  0  0  0
    5.5824   -0.3733   18.0530 H   0  0  0  0  0  0
    6.6035    0.9471   17.5493 H   0  0  0  0  0  0
  1  2  1  0  0  0
  1 37  1  0  0  0
  1 38  1  0  0  0
  1 39  1  0  0  0
  2  6  2  0  0  0
  2  3  1  0  0  0
  3  4  2  0  0  0
  4 36  1  0  0  0
  4  5  1  0  0  0
  5  6  1  0  0  0
  5  7  1  0  0  0
  7  8  1  0  0  0
  7 40  1  0  0  0
  7 41  1  0  0  0
  8  9  1  0  0  0
  8 35  1  0  0  0
  8 42  1  0  0  0
  9 10  2  0  0  0
  9 11  1  0  0  0
 11 12  1  0  0  0
 11 43  1  0  0  0
 12 13  1  0  0  0
 12 14  1  0  0  0
 12 27  1  0  0  0
 13 44  1  0  0  0
 13 45  1  0  0  0
 13 46  1  0  0  0
 14 15  2  0  0  0
 14 16  1  0  0  0
 16 17  1  0  0  0
 16 47  1  0  0  0
 17 26  2  0  0  0
 17 18  1  0  0  0
 18 19  2  0  0  0
 18 48  1  0  0  0
 19 20  1  0  0  0
 20 21  2  0  0  0
 20 49  1  0  0  0
 21 26  1  0  0  0
 21 22  1  0  0  0
 22 23  2  0  0  0
 22 50  1  0  0  0
 23 24  1  0  0  0
 23 51  1  0  0  0
 24 25  2  0  0  0
 24 52  1  0  0  0
 25 26  1  0  0  0
 25 53  1  0  0  0
 27 34  2  0  0  0
 27 28  1  0  0  0
 28 29  2  0  0  0
 28 54  1  0  0  0
 29 30  1  0  0  0
 29 55  1  0  0  0
 30 31  1  0  0  0
 30 32  2  0  0  0
 32 33  1  0  0  0
 32 34  1  0  0  0
 34 56  1  0  0  0
 35 36  1  0  0  0
 35 57  1  0  0  0
 35 58  1  0  0  0
 36 59  1  0  0  0
 36 60  1  0  0  0
M  END
> <r_i_docking_score>
-7.09439741567212

$$$$
ligprep_5.maegz:135
                    3D
 Schrodinger Suite 2020-4.
 59 62  0  0  1  0            999 V2000
    7.5567   -0.4519   19.5797 C   0  0  0  0  0  0
    7.4105   -0.4718   21.1342 C   0  0  2  0  0  0
    8.7727   -0.5271   21.7243 N   0  0  0  0  0  0
    9.6873    0.4609   21.7373 C   0  0  0  0  0  0
    9.4928    1.5472   21.1870 O   0  0  0  0  0  0
   11.0143    0.1520   22.4681 C   0  0  0  0  0  0
   11.9822    1.2151   22.3888 O   0  0  0  0  0  0
   11.7545    2.4521   22.9705 C   0  0  0  0  0  0
   10.6554    2.7416   23.7864 C   0  0  0  0  0  0
   10.4853    4.0175   24.3063 C   0  0  0  0  0  0
   11.4426    5.0096   24.0845 C   0  0  0  0  0  0
   11.2725    6.3475   24.7580 C   0  0  0  0  0  0
   12.3695    7.0589   25.0068 N   0  0  0  0  0  0
   10.1730    6.7514   25.1293 O   0  0  0  0  0  0
   12.5436    4.7259   23.2608 C   0  0  0  0  0  0
   12.6915    3.4539   22.7083 C   0  0  0  0  0  0
    6.6919   -1.7894   21.6001 C   0  0  0  0  0  0
    5.9688   -2.4098   20.8166 O   0  0  0  0  0  0
    6.8715   -2.1811   22.8859 N   0  0  0  0  0  0
    6.2694   -3.2600   23.5660 C   0  0  0  0  0  0
    4.9484   -3.6563   23.3004 C   0  0  0  0  0  0
    4.3068   -4.6525   23.9521 N   0  0  0  0  0  0
    4.9816   -5.2823   24.9378 C   0  0  0  0  0  0
    6.3038   -4.9759   25.3270 C   0  0  0  0  0  0
    6.9634   -5.6525   26.3798 C   0  0  0  0  0  0
    8.2748   -5.3226   26.7088 C   0  0  0  0  0  0
    8.9471   -4.3252   26.0128 C   0  0  0  0  0  0
    8.3191   -3.6278   24.9848 C   0  0  0  0  0  0
    6.9776   -3.9337   24.6145 C   0  0  0  0  0  0
    6.5874    0.7409   21.6735 C   0  0  0  0  0  0
    5.9310    1.6462   20.8211 C   0  0  0  0  0  0
    5.2397    2.7455   21.3326 C   0  0  0  0  0  0
    5.1811    2.9643   22.7066 C   0  0  0  0  0  0
    4.3090    4.3327   23.3041 Cl  0  0  0  0  0  0
    5.8333    2.0842   23.5736 C   0  0  0  0  0  0
    5.8108    2.3182   25.2884 Cl  0  0  0  0  0  0
    6.5290    0.9935   23.0560 C   0  0  0  0  0  0
    6.6068   -0.6073   19.0639 H   0  0  0  0  0  0
    7.9692    0.4911   19.2210 H   0  0  0  0  0  0
    8.2372   -1.2281   19.2375 H   0  0  0  0  0  0
    9.0961   -1.4487   21.9815 H   0  0  0  0  0  0
   11.4692   -0.7263   22.0064 H   0  0  0  0  0  0
   10.8293   -0.0980   23.5115 H   0  0  0  0  0  0
    9.9091    1.9997   24.0192 H   0  0  0  0  0  0
    9.6182    4.2129   24.9228 H   0  0  0  0  0  0
   13.2812    6.7429   24.7064 H   0  0  0  0  0  0
   12.2686    7.9327   25.4993 H   0  0  0  0  0  0
   13.2948    5.4724   23.0460 H   0  0  0  0  0  0
   13.5405    3.2371   22.0766 H   0  0  0  0  0  0
    7.5314   -1.6467   23.4295 H   0  0  0  0  0  0
    4.3596   -3.1485   22.5522 H   0  0  0  0  0  0
    4.4472   -6.0706   25.4467 H   0  0  0  0  0  0
    6.4541   -6.4389   26.9162 H   0  0  0  0  0  0
    8.7747   -5.8575   27.5024 H   0  0  0  0  0  0
    9.9681   -4.0956   26.2746 H   0  0  0  0  0  0
    8.8629   -2.8588   24.4583 H   0  0  0  0  0  0
    5.9418    1.5242   19.7494 H   0  0  0  0  0  0
    4.7542    3.4420   20.6637 H   0  0  0  0  0  0
    7.0368    0.3439   23.7483 H   0  0  0  0  0  0
  1  2  1  0  0  0
  1 38  1  0  0  0
  1 39  1  0  0  0
  1 40  1  0  0  0
  2  3  1  0  0  0
  2 17  1  0  0  0
  2 30  1  0  0  0
  3  4  1  0  0  0
  3 41  1  0  0  0
  4  5  2  0  0  0
  4  6  1  0  0  0
  6  7  1  0  0  0
  6 42  1  0  0  0
  6 43  1  0  0  0
  7  8  1  0  0  0
  8 16  2  0  0  0
  8  9  1  0  0  0
  9 10  2  0  0  0
  9 44  1  0  0  0
 10 11  1  0  0  0
 10 45  1  0  0  0
 11 12  1  0  0  0
 11 15  2  0  0  0
 12 13  1  0  0  0
 12 14  2  0  0  0
 13 46  1  0  0  0
 13 47  1  0  0  0
 15 16  1  0  0  0
 15 48  1  0  0  0
 16 49  1  0  0  0
 17 18  2  0  0  0
 17 19  1  0  0  0
 19 20  1  0  0  0
 19 50  1  0  0  0
 20 29  2  0  0  0
 20 21  1  0  0  0
 21 22  2  0  0  0
 21 51  1  0  0  0
 22 23  1  0  0  0
 23 24  2  0  0  0
 23 52  1  0  0  0
 24 29  1  0  0  0
 24 25  1  0  0  0
 25 26  2  0  0  0
 25 53  1  0  0  0
 26 27  1  0  0  0
 26 54  1  0  0  0
 27 28  2  0  0  0
 27 55  1  0  0  0
 28 29  1  0  0  0
 28 56  1  0  0  0
 30 37  2  0  0  0
 30 31  1  0  0  0
 31 32  2  0  0  0
 31 57  1  0  0  0
 32 33  1  0  0  0
 32 58  1  0  0  0
 33 34  1  0  0  0
 33 35  2  0  0  0
 35 36  1  0  0  0
 35 37  1  0  0  0
 37 59  1  0  0  0
M  END
> <r_i_docking_score>
-6.96439708140646

$$$$
ligprep_5.maegz:136
                    3D
 Schrodinger Suite 2020-4.
 46 48  0  0  1  0            999 V2000
    6.1876   -1.7310   24.2335 C   0  0  0  0  0  0
    7.1512   -1.7680   23.0078 C   0  0  2  0  0  0
    7.3285   -3.1851   22.5919 N   0  0  0  0  0  0
    6.4016   -4.0401   22.1106 C   0  0  0  0  0  0
    5.2275   -3.7201   21.9082 O   0  0  0  0  0  0
    6.8876   -5.4589   21.7622 C   0  0  0  0  0  0
    6.1843   -6.4352   22.5630 N   0  0  0  0  0  0
    8.5911   -1.3047   23.4022 C   0  0  0  0  0  0
    8.8339   -0.9052   24.5438 O   0  0  0  0  0  0
    9.5265   -1.3210   22.4237 N   0  0  0  0  0  0
   10.8178   -0.7879   22.5221 C   0  0  0  0  0  0
   11.8922   -1.6543   22.3079 C   0  0  0  0  0  0
   13.1848   -1.2579   22.2927 N   0  0  0  0  0  0
   13.4355    0.0548   22.4861 C   0  0  0  0  0  0
   12.4513    1.0391   22.7080 C   0  0  0  0  0  0
   12.7696    2.4114   22.8506 C   0  0  0  0  0  0
   11.7574    3.3453   23.0386 C   0  0  0  0  0  0
   10.4263    2.9453   23.0722 C   0  0  0  0  0  0
   10.0830    1.6054   22.9093 C   0  0  0  0  0  0
   11.0870    0.6110   22.7298 C   0  0  0  0  0  0
    6.6504   -0.7839   21.9064 C   0  0  0  0  0  0
    6.3697    0.5581   22.2206 C   0  0  0  0  0  0
    5.9317    1.4534   21.2418 C   0  0  0  0  0  0
    5.7686    1.0274   19.9234 C   0  0  0  0  0  0
    5.1690    2.1380   18.7434 Cl  0  0  0  0  0  0
    6.0865   -0.2878   19.5811 C   0  0  0  0  0  0
    5.9696   -0.8515   17.9531 Cl  0  0  0  0  0  0
    6.5205   -1.1729   20.5659 C   0  0  0  0  0  0
    6.1853   -0.7643   24.7388 H   0  0  0  0  0  0
    5.1586   -1.9321   23.9329 H   0  0  0  0  0  0
    6.4585   -2.4785   24.9809 H   0  0  0  0  0  0
    8.2316   -3.5852   22.8047 H   0  0  0  0  0  0
    6.6752   -5.6433   20.7078 H   0  0  0  0  0  0
    7.9690   -5.5577   21.8850 H   0  0  0  0  0  0
    5.1984   -6.4309   22.3384 H   0  0  0  0  0  0
    6.4998   -7.3712   22.3539 H   0  0  0  0  0  0
    9.3171   -1.8352   21.5809 H   0  0  0  0  0  0
   11.7280   -2.7063   22.1186 H   0  0  0  0  0  0
   14.4695    0.3522   22.4330 H   0  0  0  0  0  0
   13.7998    2.7309   22.7980 H   0  0  0  0  0  0
   12.0029    4.3923   23.1422 H   0  0  0  0  0  0
    9.6493    3.6853   23.2016 H   0  0  0  0  0  0
    9.0412    1.3280   22.9133 H   0  0  0  0  0  0
    6.4813    0.9177   23.2334 H   0  0  0  0  0  0
    5.7020    2.4755   21.5082 H   0  0  0  0  0  0
    6.7692   -2.1758   20.2683 H   0  0  0  0  0  0
  1  2  1  0  0  0
  1 29  1  0  0  0
  1 30  1  0  0  0
  1 31  1  0  0  0
  2  3  1  0  0  0
  2  8  1  0  0  0
  2 21  1  0  0  0
  3  4  1  0  0  0
  3 32  1  0  0  0
  4  5  2  0  0  0
  4  6  1  0  0  0
  6  7  1  0  0  0
  6 33  1  0  0  0
  6 34  1  0  0  0
  7 35  1  0  0  0
  7 36  1  0  0  0
  8  9  2  0  0  0
  8 10  1  0  0  0
 10 11  1  0  0  0
 10 37  1  0  0  0
 11 20  2  0  0  0
 11 12  1  0  0  0
 12 13  2  0  0  0
 12 38  1  0  0  0
 13 14  1  0  0  0
 14 15  2  0  0  0
 14 39  1  0  0  0
 15 20  1  0  0  0
 15 16  1  0  0  0
 16 17  2  0  0  0
 16 40  1  0  0  0
 17 18  1  0  0  0
 17 41  1  0  0  0
 18 19  2  0  0  0
 18 42  1  0  0  0
 19 20  1  0  0  0
 19 43  1  0  0  0
 21 28  2  0  0  0
 21 22  1  0  0  0
 22 23  2  0  0  0
 22 44  1  0  0  0
 23 24  1  0  0  0
 23 45  1  0  0  0
 24 25  1  0  0  0
 24 26  2  0  0  0
 26 27  1  0  0  0
 26 28  1  0  0  0
 28 46  1  0  0  0
M  END
> <r_i_docking_score>
-7.31102917120088

$$$$
ligprep_5.maegz:137
                    3D
 Schrodinger Suite 2020-4.
 48 50  0  0  1  0            999 V2000
    5.0605   -6.3638   22.7055 C   0  0  0  0  0  0
    5.8998   -5.9938   21.6130 O   0  0  0  0  0  0
    7.0002   -5.1430   21.9442 C   0  0  0  0  0  0
    6.5391   -3.6877   22.1476 C   0  0  0  0  0  0
    5.3774   -3.3528   21.9050 O   0  0  0  0  0  0
    7.4732   -2.8288   22.6024 N   0  0  0  0  0  0
    7.2854   -1.4024   22.9729 C   0  0  1  0  0  0
    6.3203   -1.3557   24.2024 C   0  0  0  0  0  0
    8.7097   -0.8946   23.3703 C   0  0  0  0  0  0
    8.9135   -0.3986   24.4840 O   0  0  0  0  0  0
    9.6747   -0.9713   22.4265 N   0  0  0  0  0  0
   10.9522   -0.3996   22.5167 C   0  0  0  0  0  0
   12.0502   -1.2387   22.3055 C   0  0  0  0  0  0
   13.3340   -0.8136   22.3030 N   0  0  0  0  0  0
   13.5532    0.5064   22.4941 C   0  0  0  0  0  0
   12.5421    1.4692   22.7077 C   0  0  0  0  0  0
   12.8234    2.8486   22.8559 C   0  0  0  0  0  0
   11.7942    3.7579   23.0621 C   0  0  0  0  0  0
   10.4733    3.3288   23.0878 C   0  0  0  0  0  0
   10.1621    1.9865   22.8949 C   0  0  0  0  0  0
   11.1877    1.0096   22.7190 C   0  0  0  0  0  0
    6.7549   -0.4527   21.8533 C   0  0  0  0  0  0
    6.3691    0.8646   22.1575 C   0  0  0  0  0  0
    5.8242    1.6997   21.1809 C   0  0  0  0  0  0
    5.6655    1.2415   19.8745 C   0  0  0  0  0  0
    4.9175    2.2752   18.7080 Cl  0  0  0  0  0  0
    6.1009   -0.0415   19.5355 C   0  0  0  0  0  0
    5.9696   -0.6433   17.9227 Cl  0  0  0  0  0  0
    6.6454   -0.8675   20.5170 C   0  0  0  0  0  0
    4.1586   -6.8372   22.3129 H   0  0  0  0  0  0
    5.5675   -7.0702   23.3613 H   0  0  0  0  0  0
    4.7375   -5.5115   23.3022 H   0  0  0  0  0  0
    7.6965   -5.1725   21.1081 H   0  0  0  0  0  0
    7.5302   -5.5146   22.8224 H   0  0  0  0  0  0
    8.3617   -3.2290   22.8674 H   0  0  0  0  0  0
    6.2971   -0.3813   24.6932 H   0  0  0  0  0  0
    5.2946   -1.5820   23.9089 H   0  0  0  0  0  0
    6.6086   -2.0802   24.9657 H   0  0  0  0  0  0
    9.5032   -1.5593   21.6243 H   0  0  0  0  0  0
   11.9086   -2.2957   22.1221 H   0  0  0  0  0  0
   14.5800    0.8302   22.4418 H   0  0  0  0  0  0
   13.8481    3.1883   22.8126 H   0  0  0  0  0  0
   12.0183    4.8067   23.1830 H   0  0  0  0  0  0
    9.6786    4.0467   23.2252 H   0  0  0  0  0  0
    9.1241    1.6974   22.8820 H   0  0  0  0  0  0
    6.4692    1.2457   23.1619 H   0  0  0  0  0  0
    5.5003    2.6959   21.4416 H   0  0  0  0  0  0
    6.9652   -1.8512   20.2218 H   0  0  0  0  0  0
  1  2  1  0  0  0
  1 30  1  0  0  0
  1 31  1  0  0  0
  1 32  1  0  0  0
  2  3  1  0  0  0
  3  4  1  0  0  0
  3 33  1  0  0  0
  3 34  1  0  0  0
  4  5  2  0  0  0
  4  6  1  0  0  0
  6  7  1  0  0  0
  6 35  1  0  0  0
  7  8  1  0  0  0
  7  9  1  0  0  0
  7 22  1  0  0  0
  8 36  1  0  0  0
  8 37  1  0  0  0
  8 38  1  0  0  0
  9 10  2  0  0  0
  9 11  1  0  0  0
 11 12  1  0  0  0
 11 39  1  0  0  0
 12 21  2  0  0  0
 12 13  1  0  0  0
 13 14  2  0  0  0
 13 40  1  0  0  0
 14 15  1  0  0  0
 15 16  2  0  0  0
 15 41  1  0  0  0
 16 21  1  0  0  0
 16 17  1  0  0  0
 17 18  2  0  0  0
 17 42  1  0  0  0
 18 19  1  0  0  0
 18 43  1  0  0  0
 19 20  2  0  0  0
 19 44  1  0  0  0
 20 21  1  0  0  0
 20 45  1  0  0  0
 22 29  2  0  0  0
 22 23  1  0  0  0
 23 24  2  0  0  0
 23 46  1  0  0  0
 24 25  1  0  0  0
 24 47  1  0  0  0
 25 26  1  0  0  0
 25 27  2  0  0  0
 27 28  1  0  0  0
 27 29  1  0  0  0
 29 48  1  0  0  0
M  END
> <r_i_docking_score>
-6.7495422050632

$$$$
ligprep_5.maegz:138
                    3D
 Schrodinger Suite 2020-4.
 45 47  0  0  1  0            999 V2000
    4.4312    2.5083   19.2517 C   0  0  0  0  0  0
    5.0502    1.2665   19.5551 O   0  0  0  0  0  0
    5.5584    0.5843   18.4175 C   0  0  0  0  0  0
    6.0310   -0.8291   18.8042 C   0  0  0  0  0  0
    7.2036   -0.8458   19.6237 O   0  0  0  0  0  0
    7.0819   -0.6017   21.0292 C   0  0  1  0  0  0
    6.4892   -1.8228   21.7969 C   0  0  0  0  0  0
    5.9820   -2.7814   21.2010 O   0  0  0  0  0  0
    6.5827   -1.7639   23.1415 N   0  0  0  0  0  0
    6.2429   -2.8003   24.0194 C   0  0  0  0  0  0
    4.8972   -3.0929   24.2648 C   0  0  0  0  0  0
    4.4797   -4.0442   25.1317 N   0  0  0  0  0  0
    5.4303   -4.7393   25.7971 C   0  0  0  0  0  0
    6.8228   -4.5450   25.6452 C   0  0  0  0  0  0
    7.7848   -5.2891   26.3707 C   0  0  0  0  0  0
    9.1425   -5.0685   26.1593 C   0  0  0  0  0  0
    9.5691   -4.1081   25.2498 C   0  0  0  0  0  0
    8.6463   -3.3402   24.5434 C   0  0  0  0  0  0
    7.2471   -3.5426   24.7181 C   0  0  0  0  0  0
    8.4815   -0.2183   21.5407 C   0  0  0  0  0  0
    8.7416    1.0979   21.9393 C   0  0  0  0  0  0
    9.9912    1.4477   22.4547 C   0  0  0  0  0  0
   10.9965    0.4870   22.5808 C   0  0  0  0  0  0
   12.5236    0.9516   23.2555 Cl  0  0  0  0  0  0
   10.7572   -0.8262   22.1562 C   0  0  0  0  0  0
   11.9714   -2.0526   22.2973 Cl  0  0  0  0  0  0
    9.5132   -1.1657   21.6183 C   0  0  0  0  0  0
    4.1961    3.0373   20.1749 H   0  0  0  0  0  0
    5.0861    3.1423   18.6568 H   0  0  0  0  0  0
    3.4984    2.3599   18.7070 H   0  0  0  0  0  0
    6.3867    1.1443   17.9802 H   0  0  0  0  0  0
    4.7813    0.4988   17.6545 H   0  0  0  0  0  0
    6.2875   -1.3632   17.8902 H   0  0  0  0  0  0
    5.2104   -1.3881   19.2533 H   0  0  0  0  0  0
    6.4138    0.2383   21.2125 H   0  0  0  0  0  0
    7.0840   -0.9831   23.5400 H   0  0  0  0  0  0
    4.1181   -2.5407   23.7624 H   0  0  0  0  0  0
    5.0742   -5.4897   26.4895 H   0  0  0  0  0  0
    7.4611   -6.0454   27.0725 H   0  0  0  0  0  0
    9.8740   -5.6514   26.7029 H   0  0  0  0  0  0
   10.6284   -3.9634   25.0906 H   0  0  0  0  0  0
    9.0006   -2.5966   23.8479 H   0  0  0  0  0  0
    7.9735    1.8537   21.8655 H   0  0  0  0  0  0
   10.1745    2.4664   22.7705 H   0  0  0  0  0  0
    9.3427   -2.1806   21.2843 H   0  0  0  0  0  0
  1  2  1  0  0  0
  1 28  1  0  0  0
  1 29  1  0  0  0
  1 30  1  0  0  0
  2  3  1  0  0  0
  3  4  1  0  0  0
  3 31  1  0  0  0
  3 32  1  0  0  0
  4  5  1  0  0  0
  4 33  1  0  0  0
  4 34  1  0  0  0
  5  6  1  0  0  0
  6  7  1  0  0  0
  6 20  1  0  0  0
  6 35  1  0  0  0
  7  8  2  0  0  0
  7  9  1  0  0  0
  9 10  1  0  0  0
  9 36  1  0  0  0
 10 19  2  0  0  0
 10 11  1  0  0  0
 11 12  2  0  0  0
 11 37  1  0  0  0
 12 13  1  0  0  0
 13 14  2  0  0  0
 13 38  1  0  0  0
 14 19  1  0  0  0
 14 15  1  0  0  0
 15 16  2  0  0  0
 15 39  1  0  0  0
 16 17  1  0  0  0
 16 40  1  0  0  0
 17 18  2  0  0  0
 17 41  1  0  0  0
 18 19  1  0  0  0
 18 42  1  0  0  0
 20 27  2  0  0  0
 20 21  1  0  0  0
 21 22  2  0  0  0
 21 43  1  0  0  0
 22 23  1  0  0  0
 22 44  1  0  0  0
 23 24  1  0  0  0
 23 25  2  0  0  0
 25 26  1  0  0  0
 25 27  1  0  0  0
 27 45  1  0  0  0
M  END
> <r_i_docking_score>
-6.53996965940659

$$$$
ligprep_5.maegz:139
                    3D
 Schrodinger Suite 2020-4.
 41 43  0  0  1  0            999 V2000
    8.1367    0.8887   21.2547 C   0  0  0  0  0  0
    8.0238   -0.6368   21.1544 C   0  0  0  0  0  0
    7.0920   -1.0656   22.1432 O   0  0  0  0  0  0
    7.1516   -2.4000   22.4716 C   0  0  0  0  0  0
    6.4634   -3.3514   21.7026 C   0  0  0  0  0  0
    5.5698   -2.8833   20.2996 Cl  0  0  0  0  0  0
    6.5006   -4.7005   22.0566 C   0  0  0  0  0  0
    7.2047   -5.1062   23.1870 C   0  0  0  0  0  0
    7.8701   -4.1653   23.9700 C   0  0  0  0  0  0
    7.8484   -2.8095   23.6237 C   0  0  0  0  0  0
    8.5874   -1.8032   24.5090 C   0  0  0  0  0  0
    9.9686   -1.4301   23.9521 C   0  0  0  0  0  0
   10.7594   -2.3290   23.6720 O   0  0  0  0  0  0
   10.2167   -0.1071   23.8282 N   0  0  0  0  0  0
   11.3535    0.5648   23.3205 C   0  0  0  0  0  0
   12.4682   -0.0970   22.7770 C   0  0  0  0  0  0
   13.5700    0.5261   22.3079 N   0  0  0  0  0  0
   13.5698    1.8741   22.3081 C   0  0  0  0  0  0
   12.5232    2.6757   22.8012 C   0  0  0  0  0  0
   12.5842    4.0907   22.7915 C   0  0  0  0  0  0
   11.5318    4.8346   23.3149 C   0  0  0  0  0  0
   10.4139    4.1996   23.8451 C   0  0  0  0  0  0
   10.3270    2.8095   23.8652 C   0  0  0  0  0  0
   11.3801    2.0033   23.3389 C   0  0  0  0  0  0
    8.9994    1.2618   20.7076 H   0  0  0  0  0  0
    7.2427    1.3709   20.8589 H   0  0  0  0  0  0
    8.2534    1.2101   22.2887 H   0  0  0  0  0  0
    9.0072   -1.0891   21.3036 H   0  0  0  0  0  0
    7.6909   -0.9287   20.1569 H   0  0  0  0  0  0
    5.9844   -5.4354   21.4557 H   0  0  0  0  0  0
    7.2341   -6.1503   23.4573 H   0  0  0  0  0  0
    8.4131   -4.4962   24.8440 H   0  0  0  0  0  0
    7.9608   -0.9189   24.6377 H   0  0  0  0  0  0
    8.7244   -2.2095   25.5111 H   0  0  0  0  0  0
    9.4715    0.5024   24.1288 H   0  0  0  0  0  0
   12.5304   -1.1709   22.7057 H   0  0  0  0  0  0
   14.4581    2.3437   21.9089 H   0  0  0  0  0  0
   13.4529    4.5862   22.3836 H   0  0  0  0  0  0
   11.5786    5.9140   23.3030 H   0  0  0  0  0  0
    9.6012    4.7917   24.2410 H   0  0  0  0  0  0
    9.4460    2.3479   24.2858 H   0  0  0  0  0  0
  1  2  1  0  0  0
  1 25  1  0  0  0
  1 26  1  0  0  0
  1 27  1  0  0  0
  2  3  1  0  0  0
  2 28  1  0  0  0
  2 29  1  0  0  0
  3  4  1  0  0  0
  4 10  2  0  0  0
  4  5  1  0  0  0
  5  6  1  0  0  0
  5  7  2  0  0  0
  7  8  1  0  0  0
  7 30  1  0  0  0
  8  9  2  0  0  0
  8 31  1  0  0  0
  9 10  1  0  0  0
  9 32  1  0  0  0
 10 11  1  0  0  0
 11 12  1  0  0  0
 11 33  1  0  0  0
 11 34  1  0  0  0
 12 13  2  0  0  0
 12 14  1  0  0  0
 14 15  1  0  0  0
 14 35  1  0  0  0
 15 24  2  0  0  0
 15 16  1  0  0  0
 16 17  2  0  0  0
 16 36  1  0  0  0
 17 18  1  0  0  0
 18 19  2  0  0  0
 18 37  1  0  0  0
 19 24  1  0  0  0
 19 20  1  0  0  0
 20 21  2  0  0  0
 20 38  1  0  0  0
 21 22  1  0  0  0
 21 39  1  0  0  0
 22 23  2  0  0  0
 22 40  1  0  0  0
 23 24  1  0  0  0
 23 41  1  0  0  0
M  END
> <r_i_docking_score>
-5.76800922777469

$$$$
ligprep_5.maegz:140
                    3D
 Schrodinger Suite 2020-4.
 34 36  0  0  1  0            999 V2000
    8.7974    1.6236   21.1079 O   0  0  0  0  0  0
    8.3260    1.9274   22.2068 C   0  0  0  0  0  0
    6.8315    1.7003   22.5116 C   0  0  0  0  0  0
    5.8815    1.9141   21.3278 C   0  0  0  0  0  0
    6.0729    1.2509   20.1076 C   0  0  0  0  0  0
    5.2264    1.4890   19.0296 C   0  0  0  0  0  0
    5.5689    0.7481   17.5081 Cl  0  0  0  0  0  0
    4.1290    2.3356   19.1831 C   0  0  0  0  0  0
    3.8764    2.9350   20.4158 C   0  0  0  0  0  0
    2.4832    3.9328   20.6250 Cl  0  0  0  0  0  0
    4.7613    2.7420   21.4772 C   0  0  0  0  0  0
    9.0791    2.4167   23.2149 N   0  0  0  0  0  0
   10.4664    2.6168   23.1099 C   0  0  0  0  0  0
   10.9565    3.9246   23.1820 C   0  0  0  0  0  0
   12.2543    4.2551   22.9862 N   0  0  0  0  0  0
   13.1160    3.2518   22.7078 C   0  0  0  0  0  0
   12.7639    1.8831   22.6492 C   0  0  0  0  0  0
   13.6955    0.8633   22.3399 C   0  0  0  0  0  0
   13.2934   -0.4693   22.3082 C   0  0  0  0  0  0
   11.9732   -0.8155   22.5654 C   0  0  0  0  0  0
   11.0295    0.1674   22.8510 C   0  0  0  0  0  0
   11.3951    1.5449   22.8810 C   0  0  0  0  0  0
    6.5270    2.3235   23.3529 H   0  0  0  0  0  0
    6.7134    0.6693   22.8462 H   0  0  0  0  0  0
    6.8990    0.5683   19.9735 H   0  0  0  0  0  0
    3.4780    2.5357   18.3444 H   0  0  0  0  0  0
    4.5682    3.2363   22.4185 H   0  0  0  0  0  0
    8.6107    2.8182   24.0134 H   0  0  0  0  0  0
   10.2851    4.7569   23.3415 H   0  0  0  0  0  0
   14.1393    3.5477   22.5272 H   0  0  0  0  0  0
   14.7215    1.1296   22.1298 H   0  0  0  0  0  0
   14.0040   -1.2448   22.0661 H   0  0  0  0  0  0
   11.6749   -1.8534   22.5270 H   0  0  0  0  0  0
   10.0069   -0.1249   23.0361 H   0  0  0  0  0  0
  1  2  2  0  0  0
  2  3  1  0  0  0
  2 12  1  0  0  0
  3  4  1  0  0  0
  3 23  1  0  0  0
  3 24  1  0  0  0
  4 11  2  0  0  0
  4  5  1  0  0  0
  5  6  2  0  0  0
  5 25  1  0  0  0
  6  7  1  0  0  0
  6  8  1  0  0  0
  8  9  2  0  0  0
  8 26  1  0  0  0
  9 10  1  0  0  0
  9 11  1  0  0  0
 11 27  1  0  0  0
 12 13  1  0  0  0
 12 28  1  0  0  0
 13 22  2  0  0  0
 13 14  1  0  0  0
 14 15  2  0  0  0
 14 29  1  0  0  0
 15 16  1  0  0  0
 16 17  2  0  0  0
 16 30  1  0  0  0
 17 22  1  0  0  0
 17 18  1  0  0  0
 18 19  2  0  0  0
 18 31  1  0  0  0
 19 20  1  0  0  0
 19 32  1  0  0  0
 20 21  2  0  0  0
 20 33  1  0  0  0
 21 22  1  0  0  0
 21 34  1  0  0  0
M  END
> <r_i_docking_score>
-6.12005881858923

$$$$
ligprep_5.maegz:141
                    3D
 Schrodinger Suite 2020-4.
 37 39  0  0  1  0            999 V2000
    6.0923   -0.7213   21.5660 C   0  0  0  0  0  0
    7.0604   -1.9155   21.7253 C   0  0  1  0  0  0
    8.3494   -1.4578   22.4370 C   0  0  0  0  0  0
    8.3251   -1.1767   23.6375 O   0  0  0  0  0  0
    9.4535   -1.3560   21.6662 N   0  0  0  0  0  0
   10.6835   -0.8253   22.0750 C   0  0  0  0  0  0
   11.8066   -1.6539   22.0172 C   0  0  0  0  0  0
   13.0637   -1.2483   22.3058 N   0  0  0  0  0  0
   13.2273    0.0423   22.6739 C   0  0  0  0  0  0
   12.1874    0.9917   22.7586 C   0  0  0  0  0  0
   12.4242    2.3428   23.1057 C   0  0  0  0  0  0
   11.3717    3.2505   23.1336 C   0  0  0  0  0  0
   10.0792    2.8391   22.8264 C   0  0  0  0  0  0
    9.8147    1.5153   22.4831 C   0  0  0  0  0  0
   10.8632    0.5518   22.4472 C   0  0  0  0  0  0
    6.4435   -3.1569   22.3889 C   0  0  0  0  0  0
    5.3425   -3.0726   23.2571 C   0  0  0  0  0  0
    4.8017   -4.2242   23.8305 C   0  0  0  0  0  0
    5.3504   -5.4773   23.5529 C   0  0  0  0  0  0
    4.6557   -6.8819   24.2888 Cl  0  0  0  0  0  0
    6.4539   -5.5725   22.6962 C   0  0  0  0  0  0
    7.1703   -7.0982   22.3080 Cl  0  0  0  0  0  0
    6.9974   -4.4178   22.1311 C   0  0  0  0  0  0
    5.8179   -0.2762   22.5264 H   0  0  0  0  0  0
    6.5380    0.0697   20.9591 H   0  0  0  0  0  0
    5.1704   -1.0183   21.0634 H   0  0  0  0  0  0
    7.3127   -2.2113   20.7082 H   0  0  0  0  0  0
    9.4460   -1.8026   20.7604 H   0  0  0  0  0  0
   11.7111   -2.6866   21.7130 H   0  0  0  0  0  0
   14.2429    0.3453   22.8902 H   0  0  0  0  0  0
   13.4311    2.6686   23.3270 H   0  0  0  0  0  0
   11.5576    4.2863   23.3813 H   0  0  0  0  0  0
    9.2743    3.5622   22.8395 H   0  0  0  0  0  0
    8.8027    1.2307   22.2363 H   0  0  0  0  0  0
    4.8984   -2.1174   23.4931 H   0  0  0  0  0  0
    3.9544   -4.1417   24.4976 H   0  0  0  0  0  0
    7.8585   -4.5076   21.4836 H   0  0  0  0  0  0
  1  2  1  0  0  0
  1 24  1  0  0  0
  1 25  1  0  0  0
  1 26  1  0  0  0
  2  3  1  0  0  0
  2 16  1  0  0  0
  2 27  1  0  0  0
  3  4  2  0  0  0
  3  5  1  0  0  0
  5  6  1  0  0  0
  5 28  1  0  0  0
  6 15  2  0  0  0
  6  7  1  0  0  0
  7  8  2  0  0  0
  7 29  1  0  0  0
  8  9  1  0  0  0
  9 10  2  0  0  0
  9 30  1  0  0  0
 10 15  1  0  0  0
 10 11  1  0  0  0
 11 12  2  0  0  0
 11 31  1  0  0  0
 12 13  1  0  0  0
 12 32  1  0  0  0
 13 14  2  0  0  0
 13 33  1  0  0  0
 14 15  1  0  0  0
 14 34  1  0  0  0
 16 23  2  0  0  0
 16 17  1  0  0  0
 17 18  2  0  0  0
 17 35  1  0  0  0
 18 19  1  0  0  0
 18 36  1  0  0  0
 19 20  1  0  0  0
 19 21  2  0  0  0
 21 22  1  0  0  0
 21 23  1  0  0  0
 23 37  1  0  0  0
M  END
> <r_i_docking_score>
-6.61088146301282

$$$$
ligprep_5.maegz:142
                    3D
 Schrodinger Suite 2020-4.
 35 37  0  0  1  0            999 V2000
    5.5698   -3.3633   21.2412 O   0  0  0  0  0  0
    6.5359   -3.7400   21.9095 C   0  0  0  0  0  0
    7.5991   -2.9563   22.2039 N   0  0  0  0  0  0
    7.8231   -1.5832   21.9612 C   0  0  0  0  0  0
    6.8137   -0.6901   21.5634 C   0  0  0  0  0  0
    7.0035    0.6381   21.3850 N   0  0  0  0  0  0
    8.2362    1.1322   21.6277 C   0  0  0  0  0  0
    9.3414    0.3591   22.0398 C   0  0  0  0  0  0
   10.6106    0.9262   22.3088 C   0  0  0  0  0  0
   11.6713    0.1138   22.7012 C   0  0  0  0  0  0
   11.4983   -1.2602   22.8214 C   0  0  0  0  0  0
   10.2562   -1.8414   22.5849 C   0  0  0  0  0  0
    9.1360   -1.0484   22.1953 C   0  0  0  0  0  0
    6.6214   -5.1972   22.4466 C   0  0  2  0  0  0
    5.5685   -5.9868   21.9067 O   0  0  0  0  0  0
    6.6797   -5.2520   23.9827 C   0  0  0  0  0  0
    5.5457   -5.5483   24.7508 C   0  0  0  0  0  0
    5.6413   -5.6529   26.1384 C   0  0  0  0  0  0
    6.8640   -5.4551   26.7812 C   0  0  0  0  0  0
    6.9397   -5.6484   28.4972 Cl  0  0  0  0  0  0
    7.9981   -5.1223   26.0277 C   0  0  0  0  0  0
    9.5407   -4.8525   26.7662 Cl  0  0  0  0  0  0
    7.8941   -5.0217   24.6411 C   0  0  0  0  0  0
    8.3672   -3.4193   22.6640 H   0  0  0  0  0  0
    5.7937   -1.0033   21.4010 H   0  0  0  0  0  0
    8.3478    2.2003   21.5011 H   0  0  0  0  0  0
   10.7516    1.9925   22.2011 H   0  0  0  0  0  0
   12.6392    0.5518   22.8972 H   0  0  0  0  0  0
   12.3343   -1.8834   23.1065 H   0  0  0  0  0  0
   10.1556   -2.9107   22.6893 H   0  0  0  0  0  0
    7.5406   -5.6369   22.0550 H   0  0  0  0  0  0
    5.6340   -6.8899   22.2339 H   0  0  0  0  0  0
    4.5907   -5.7182   24.2742 H   0  0  0  0  0  0
    4.7648   -5.9071   26.7156 H   0  0  0  0  0  0
    8.7700   -4.7818   24.0678 H   0  0  0  0  0  0
  1  2  2  0  0  0
  2  3  1  0  0  0
  2 14  1  0  0  0
  3  4  1  0  0  0
  3 24  1  0  0  0
  4 13  2  0  0  0
  4  5  1  0  0  0
  5  6  2  0  0  0
  5 25  1  0  0  0
  6  7  1  0  0  0
  7  8  2  0  0  0
  7 26  1  0  0  0
  8 13  1  0  0  0
  8  9  1  0  0  0
  9 10  2  0  0  0
  9 27  1  0  0  0
 10 11  1  0  0  0
 10 28  1  0  0  0
 11 12  2  0  0  0
 11 29  1  0  0  0
 12 13  1  0  0  0
 12 30  1  0  0  0
 14 15  1  0  0  0
 14 16  1  0  0  0
 14 31  1  0  0  0
 15 32  1  0  0  0
 16 23  2  0  0  0
 16 17  1  0  0  0
 17 18  2  0  0  0
 17 33  1  0  0  0
 18 19  1  0  0  0
 18 34  1  0  0  0
 19 20  1  0  0  0
 19 21  2  0  0  0
 21 22  1  0  0  0
 21 23  1  0  0  0
 23 35  1  0  0  0
M  END
> <r_i_docking_score>
-6.69789151584158

$$$$
ligprep_5.maegz:143
                    3D
 Schrodinger Suite 2020-4.
 39 41  0  0  1  0            999 V2000
    9.3272   -3.8349   25.2647 C   0  0  0  0  0  0
    8.6775   -2.5965   24.8545 N   0  0  2  0  0  0
    9.0207   -2.2149   23.4631 C   0  0  1  0  0  0
    7.7880   -1.4686   22.8690 C   0  0  0  0  0  0
    6.8272   -2.1299   22.4663 O   0  0  0  0  0  0
    7.8501   -0.1197   22.8246 N   0  0  0  0  0  0
    6.9157    0.7629   22.2591 C   0  0  0  0  0  0
    6.4812    1.8231   23.0612 C   0  0  0  0  0  0
    5.6406    2.7959   22.6414 N   0  0  0  0  0  0
    5.2132    2.7385   21.3610 C   0  0  0  0  0  0
    5.5861    1.7402   20.4353 C   0  0  0  0  0  0
    5.1387    1.7455   19.0930 C   0  0  0  0  0  0
    5.5697    0.7600   18.2134 C   0  0  0  0  0  0
    6.4317   -0.2405   18.6410 C   0  0  0  0  0  0
    6.8977   -0.2650   19.9480 C   0  0  0  0  0  0
    6.4753    0.7141   20.8918 C   0  0  0  0  0  0
   10.3365   -1.4846   23.2559 C   0  0  0  0  0  0
   10.6416   -0.3156   23.9723 C   0  0  0  0  0  0
   11.7902    0.4159   23.6759 C   0  0  0  0  0  0
   12.6824   -0.0406   22.7060 C   0  0  0  0  0  0
   14.0524    0.9304   22.3082 Cl  0  0  0  0  0  0
   12.4393   -1.2564   22.0530 C   0  0  0  0  0  0
   13.5705   -1.9187   20.9237 Cl  0  0  0  0  0  0
   11.2581   -1.9520   22.3110 C   0  0  0  0  0  0
    8.9441   -4.6766   24.6864 H   0  0  0  0  0  0
   10.4069   -3.7889   25.1170 H   0  0  0  0  0  0
    9.1276   -4.0356   26.3180 H   0  0  0  0  0  0
    8.9032   -1.8550   25.5041 H   0  0  0  0  0  0
    9.0454   -3.1308   22.8634 H   0  0  0  0  0  0
    8.6302    0.3128   23.2943 H   0  0  0  0  0  0
    6.8116    1.9132   24.0869 H   0  0  0  0  0  0
    4.5650    3.5416   21.0361 H   0  0  0  0  0  0
    4.4807    2.5322   18.7505 H   0  0  0  0  0  0
    5.2328    0.7771   17.1884 H   0  0  0  0  0  0
    6.7641   -0.9922   17.9394 H   0  0  0  0  0  0
    7.5877   -1.0411   20.2363 H   0  0  0  0  0  0
    9.9620    0.0616   24.7228 H   0  0  0  0  0  0
   11.9853    1.3424   24.1968 H   0  0  0  0  0  0
   11.0544   -2.8529   21.7545 H   0  0  0  0  0  0
  1  2  1  0  0  0
  1 25  1  0  0  0
  1 26  1  0  0  0
  1 27  1  0  0  0
  2  3  1  0  0  0
  2 28  1  0  0  0
  3  4  1  0  0  0
  3 17  1  0  0  0
  3 29  1  0  0  0
  4  5  2  0  0  0
  4  6  1  0  0  0
  6  7  1  0  0  0
  6 30  1  0  0  0
  7 16  2  0  0  0
  7  8  1  0  0  0
  8  9  2  0  0  0
  8 31  1  0  0  0
  9 10  1  0  0  0
 10 11  2  0  0  0
 10 32  1  0  0  0
 11 16  1  0  0  0
 11 12  1  0  0  0
 12 13  2  0  0  0
 12 33  1  0  0  0
 13 14  1  0  0  0
 13 34  1  0  0  0
 14 15  2  0  0  0
 14 35  1  0  0  0
 15 16  1  0  0  0
 15 36  1  0  0  0
 17 24  2  0  0  0
 17 18  1  0  0  0
 18 19  2  0  0  0
 18 37  1  0  0  0
 19 20  1  0  0  0
 19 38  1  0  0  0
 20 21  1  0  0  0
 20 22  2  0  0  0
 22 23  1  0  0  0
 22 24  1  0  0  0
 24 39  1  0  0  0
M  END
> <r_i_docking_score>
-6.70657615065987

$$$$
ligprep_5.maegz:144
                    3D
 Schrodinger Suite 2020-4.
 34 36  0  0  1  0            999 V2000
   10.2765   -0.1893   21.7518 O   0  0  0  0  0  0
    9.6541    0.5872   22.4769 C   0  0  0  0  0  0
    8.3974    1.0293   22.2293 N   0  0  0  0  0  0
    7.5185    0.7504   21.1528 C   0  0  0  0  0  0
    7.7688   -0.2289   20.1773 C   0  0  0  0  0  0
    6.9751   -0.4526   19.1056 N   0  0  0  0  0  0
    5.8540    0.2826   18.9864 C   0  0  0  0  0  0
    5.4407    1.2554   19.9140 C   0  0  0  0  0  0
    4.2313    1.9738   19.7640 C   0  0  0  0  0  0
    3.8674    2.9235   20.7109 C   0  0  0  0  0  0
    4.6911    3.1872   21.7993 C   0  0  0  0  0  0
    5.8916    2.5006   21.9683 C   0  0  0  0  0  0
    6.2985    1.5049   21.0339 C   0  0  0  0  0  0
   10.3649    1.1818   23.7192 C   0  0  0  0  0  0
   11.1036    0.2367   24.3101 F   0  0  0  0  0  0
    9.4601    1.6066   24.6097 F   0  0  0  0  0  0
   11.2751    2.3410   23.2907 C   0  0  0  0  0  0
   12.5371    2.0820   22.7396 C   0  0  0  0  0  0
   13.3484    3.1294   22.3093 C   0  0  0  0  0  0
   12.9204    4.4502   22.4320 C   0  0  0  0  0  0
   13.9697    5.7198   21.9070 Cl  0  0  0  0  0  0
   11.6598    4.7233   22.9775 C   0  0  0  0  0  0
   11.0668    6.3452   23.1088 Cl  0  0  0  0  0  0
   10.8455    3.6717   23.4030 C   0  0  0  0  0  0
    8.0355    1.6896   22.8988 H   0  0  0  0  0  0
    8.6377   -0.8694   20.2037 H   0  0  0  0  0  0
    5.2428    0.0811   18.1168 H   0  0  0  0  0  0
    3.5976    1.7892   18.9070 H   0  0  0  0  0  0
    2.9508    3.4838   20.5844 H   0  0  0  0  0  0
    4.4035    3.9502   22.5076 H   0  0  0  0  0  0
    6.5112    2.7352   22.8197 H   0  0  0  0  0  0
   12.8883    1.0638   22.6366 H   0  0  0  0  0  0
   14.3269    2.9095   21.9087 H   0  0  0  0  0  0
    9.8696    3.8990   23.8061 H   0  0  0  0  0  0
  1  2  2  0  0  0
  2  3  1  0  0  0
  2 14  1  0  0  0
  3  4  1  0  0  0
  3 25  1  0  0  0
  4 13  2  0  0  0
  4  5  1  0  0  0
  5  6  2  0  0  0
  5 26  1  0  0  0
  6  7  1  0  0  0
  7  8  2  0  0  0
  7 27  1  0  0  0
  8 13  1  0  0  0
  8  9  1  0  0  0
  9 10  2  0  0  0
  9 28  1  0  0  0
 10 11  1  0  0  0
 10 29  1  0  0  0
 11 12  2  0  0  0
 11 30  1  0  0  0
 12 13  1  0  0  0
 12 31  1  0  0  0
 14 15  1  0  0  0
 14 16  1  0  0  0
 14 17  1  0  0  0
 17 24  2  0  0  0
 17 18  1  0  0  0
 18 19  2  0  0  0
 18 32  1  0  0  0
 19 20  1  0  0  0
 19 33  1  0  0  0
 20 21  1  0  0  0
 20 22  2  0  0  0
 22 23  1  0  0  0
 22 24  1  0  0  0
 24 34  1  0  0  0
M  END
> <r_i_docking_score>
-6.14442680529983

$$$$
ligprep_5.maegz:145
                    3D
 Schrodinger Suite 2020-4.
 35 37  0  0  1  0            999 V2000
    8.3898   -1.2727   26.5867 N   0  0  0  0  0  0
    8.9182   -0.4742   25.9340 C   0  0  0  0  0  0
    9.5916    0.5405   25.1009 C   0  0  2  0  0  0
    8.6316    1.5095   24.3888 C   0  0  0  0  0  0
    8.6175    2.6923   24.7341 O   0  0  0  0  0  0
    7.8790    0.9968   23.3877 N   0  0  0  0  0  0
    6.8984    1.6548   22.6165 C   0  0  0  0  0  0
    6.0750    2.6560   23.1559 C   0  0  0  0  0  0
    5.0939    3.2847   22.4686 N   0  0  0  0  0  0
    4.8909    2.9084   21.1875 C   0  0  0  0  0  0
    5.6248    1.9048   20.5209 C   0  0  0  0  0  0
    5.3643    1.5364   19.1779 C   0  0  0  0  0  0
    6.1326    0.5507   18.5662 C   0  0  0  0  0  0
    7.1622   -0.0748   19.2592 C   0  0  0  0  0  0
    7.4361    0.2606   20.5833 C   0  0  0  0  0  0
    6.6695    1.2577   21.2550 C   0  0  0  0  0  0
   10.6028   -0.0624   24.1170 C   0  0  0  0  0  0
   10.4359   -1.3532   23.5964 C   0  0  0  0  0  0
   11.3570   -1.8679   22.6869 C   0  0  0  0  0  0
   12.4554   -1.1107   22.2865 C   0  0  0  0  0  0
   13.5707   -1.8036   21.1613 Cl  0  0  0  0  0  0
   12.6247    0.1870   22.7856 C   0  0  0  0  0  0
   13.9698    1.1636   22.3079 Cl  0  0  0  0  0  0
   11.6971    0.7034   23.6925 C   0  0  0  0  0  0
   10.1648    1.1208   25.8266 H   0  0  0  0  0  0
    8.0664    0.0435   23.1157 H   0  0  0  0  0  0
    6.1812    2.9737   24.1817 H   0  0  0  0  0  0
    4.1174    3.4423   20.6529 H   0  0  0  0  0  0
    4.5743    2.0298   18.6288 H   0  0  0  0  0  0
    5.9357    0.2744   17.5399 H   0  0  0  0  0  0
    7.7515   -0.8347   18.7631 H   0  0  0  0  0  0
    8.2426   -0.2414   21.0979 H   0  0  0  0  0  0
    9.5936   -1.9650   23.8842 H   0  0  0  0  0  0
   11.2158   -2.8573   22.2818 H   0  0  0  0  0  0
   11.8259    1.7075   24.0704 H   0  0  0  0  0  0
  1  2  3  0  0  0
  2  3  1  0  0  0
  3  4  1  0  0  0
  3 17  1  0  0  0
  3 25  1  0  0  0
  4  5  2  0  0  0
  4  6  1  0  0  0
  6  7  1  0  0  0
  6 26  1  0  0  0
  7 16  2  0  0  0
  7  8  1  0  0  0
  8  9  2  0  0  0
  8 27  1  0  0  0
  9 10  1  0  0  0
 10 11  2  0  0  0
 10 28  1  0  0  0
 11 16  1  0  0  0
 11 12  1  0  0  0
 12 13  2  0  0  0
 12 29  1  0  0  0
 13 14  1  0  0  0
 13 30  1  0  0  0
 14 15  2  0  0  0
 14 31  1  0  0  0
 15 16  1  0  0  0
 15 32  1  0  0  0
 17 24  2  0  0  0
 17 18  1  0  0  0
 18 19  2  0  0  0
 18 33  1  0  0  0
 19 20  1  0  0  0
 19 34  1  0  0  0
 20 21  1  0  0  0
 20 22  2  0  0  0
 22 23  1  0  0  0
 22 24  1  0  0  0
 24 35  1  0  0  0
M  END
> <r_i_docking_score>
-6.54930090923559

$$$$
ligprep_5.maegz:146
                    3D
 Schrodinger Suite 2020-4.
 38 40  0  0  1  0            999 V2000
    8.7093   -1.0768   23.8792 O   0  0  0  0  0  0
    8.6926   -1.3970   22.6859 C   0  0  0  0  0  0
    9.7689   -1.3177   21.8809 N   0  0  0  0  0  0
   10.9806   -0.6981   22.2097 C   0  0  0  0  0  0
   12.1470   -1.4598   22.1003 C   0  0  0  0  0  0
   13.3907   -0.9616   22.2940 N   0  0  0  0  0  0
   13.4907    0.3500   22.5972 C   0  0  0  0  0  0
   12.4044    1.2365   22.7275 C   0  0  0  0  0  0
   12.5774    2.6152   23.0046 C   0  0  0  0  0  0
   11.4740    3.4557   23.0886 C   0  0  0  0  0  0
   10.1939    2.9536   22.8894 C   0  0  0  0  0  0
    9.9929    1.6056   22.6079 C   0  0  0  0  0  0
   11.0929    0.7008   22.5283 C   0  0  0  0  0  0
    7.3783   -1.8424   22.0122 C   0  0  1  0  0  0
    6.4036   -2.5352   23.0005 C   0  0  0  0  0  0
    5.1695   -2.8338   22.3794 O   0  0  0  0  0  0
    6.7383   -0.6534   21.2739 C   0  0  0  0  0  0
    6.3698    0.5081   21.9655 C   0  0  0  0  0  0
    5.7428    1.5602   21.2979 C   0  0  0  0  0  0
    5.4631    1.4621   19.9342 C   0  0  0  0  0  0
    4.6024    2.7452   19.1612 Cl  0  0  0  0  0  0
    5.8617    0.3226   19.2265 C   0  0  0  0  0  0
    5.5708    0.1804   17.5297 Cl  0  0  0  0  0  0
    6.4903   -0.7282   19.8967 C   0  0  0  0  0  0
    9.7507   -1.8089   20.9980 H   0  0  0  0  0  0
   12.0974   -2.5064   21.8254 H   0  0  0  0  0  0
   14.4911    0.7337   22.7072 H   0  0  0  0  0  0
   13.5706    3.0209   23.1345 H   0  0  0  0  0  0
   11.6130    4.5097   23.2947 H   0  0  0  0  0  0
    9.3493    3.6259   22.9352 H   0  0  0  0  0  0
    8.9876    1.2548   22.4365 H   0  0  0  0  0  0
    7.6441   -2.5929   21.2667 H   0  0  0  0  0  0
    6.8393   -3.4583   23.3850 H   0  0  0  0  0  0
    6.2006   -1.9001   23.8665 H   0  0  0  0  0  0
    4.6863   -2.0022   22.2904 H   0  0  0  0  0  0
    6.5533    0.5927   23.0283 H   0  0  0  0  0  0
    5.4435    2.4422   21.8451 H   0  0  0  0  0  0
    6.7702   -1.6124   19.3390 H   0  0  0  0  0  0
  1  2  2  0  0  0
  2  3  1  0  0  0
  2 14  1  0  0  0
  3  4  1  0  0  0
  3 25  1  0  0  0
  4 13  2  0  0  0
  4  5  1  0  0  0
  5  6  2  0  0  0
  5 26  1  0  0  0
  6  7  1  0  0  0
  7  8  2  0  0  0
  7 27  1  0  0  0
  8 13  1  0  0  0
  8  9  1  0  0  0
  9 10  2  0  0  0
  9 28  1  0  0  0
 10 11  1  0  0  0
 10 29  1  0  0  0
 11 12  2  0  0  0
 11 30  1  0  0  0
 12 13  1  0  0  0
 12 31  1  0  0  0
 14 15  1  0  0  0
 14 17  1  0  0  0
 14 32  1  0  0  0
 15 16  1  0  0  0
 15 33  1  0  0  0
 15 34  1  0  0  0
 16 35  1  0  0  0
 17 24  2  0  0  0
 17 18  1  0  0  0
 18 19  2  0  0  0
 18 36  1  0  0  0
 19 20  1  0  0  0
 19 37  1  0  0  0
 20 21  1  0  0  0
 20 22  2  0  0  0
 22 23  1  0  0  0
 22 24  1  0  0  0
 24 38  1  0  0  0
M  END
> <r_i_docking_score>
-6.42050691158738

$$$$
ligprep_5.maegz:147
                    3D
 Schrodinger Suite 2020-4.
 44 47  0  0  1  0            999 V2000
    7.9729    0.9582   25.7901 N   0  0  0  0  0  0
    9.1474    0.6291   24.9848 C   0  0  0  0  0  0
    9.5669    1.7173   23.9305 C   0  0  1  0  0  0
    8.5825    1.7199   22.7165 C   0  0  0  0  0  0
    8.9993    1.9466   21.5726 O   0  0  0  0  0  0
    7.2713    1.5686   23.0034 N   0  0  0  0  0  0
    6.2287    1.7954   22.0989 C   0  0  0  0  0  0
    5.2558    2.7330   22.4608 C   0  0  0  0  0  0
    4.2684    3.1499   21.6355 N   0  0  0  0  0  0
    4.2458    2.6342   20.3861 C   0  0  0  0  0  0
    5.1442    1.6514   19.9100 C   0  0  0  0  0  0
    5.0974    1.1471   18.5967 C   0  0  0  0  0  0
    5.9696    0.1412   18.1994 C   0  0  0  0  0  0
    6.9007   -0.3812   19.0843 C   0  0  0  0  0  0
    6.9940    0.1169   20.3761 C   0  0  0  0  0  0
    6.1412    1.1731   20.8106 C   0  0  0  0  0  0
    9.5225    3.1580   24.5251 C   0  0  0  0  0  0
   10.3088    4.1810   23.6893 C   0  0  0  0  0  0
   11.6745    3.7895   23.6133 O   0  0  0  0  0  0
   11.9044    2.4883   23.2131 C   0  0  0  0  0  0
   13.1700    2.2644   22.6847 C   0  0  0  0  0  0
   13.5565    0.9831   22.3080 C   0  0  0  0  0  0
   12.6663   -0.0761   22.4382 C   0  0  0  0  0  0
   13.1337   -1.6526   21.9080 Cl  0  0  0  0  0  0
   11.3941    0.1480   22.9686 C   0  0  0  0  0  0
   10.9863    1.4298   23.3852 C   0  0  0  0  0  0
    7.7395    0.1660   26.3739 H   0  0  0  0  0  0
    8.2251    1.6952   26.4360 H   0  0  0  0  0  0
    8.9647   -0.3292   24.4947 H   0  0  0  0  0  0
    9.9736    0.4555   25.6767 H   0  0  0  0  0  0
    7.0392    1.5050   23.9876 H   0  0  0  0  0  0
    5.2829    3.2156   23.4266 H   0  0  0  0  0  0
    3.4917    3.0310   19.7231 H   0  0  0  0  0  0
    4.3695    1.5418   17.9088 H   0  0  0  0  0  0
    5.9214   -0.2417   17.1913 H   0  0  0  0  0  0
    7.5656   -1.1654   18.7566 H   0  0  0  0  0  0
    7.7302   -0.2950   21.0477 H   0  0  0  0  0  0
    9.9683    3.1290   25.5082 H   0  0  0  0  0  0
    8.5010    3.5108   24.6803 H   0  0  0  0  0  0
   10.2542    5.1686   24.1491 H   0  0  0  0  0  0
    9.8860    4.2681   22.6899 H   0  0  0  0  0  0
   13.8643    3.0852   22.5816 H   0  0  0  0  0  0
   14.5397    0.8227   21.8968 H   0  0  0  0  0  0
   10.7113   -0.6859   23.0415 H   0  0  0  0  0  0
  1  2  1  0  0  0
  1 27  1  0  0  0
  1 28  1  0  0  0
  2  3  1  0  0  0
  2 29  1  0  0  0
  2 30  1  0  0  0
  3 26  1  0  0  0
  3  4  1  0  0  0
  3 17  1  0  0  0
  4  5  2  0  0  0
  4  6  1  0  0  0
  6  7  1  0  0  0
  6 31  1  0  0  0
  7 16  2  0  0  0
  7  8  1  0  0  0
  8  9  2  0  0  0
  8 32  1  0  0  0
  9 10  1  0  0  0
 10 11  2  0  0  0
 10 33  1  0  0  0
 11 16  1  0  0  0
 11 12  1  0  0  0
 12 13  2  0  0  0
 12 34  1  0  0  0
 13 14  1  0  0  0
 13 35  1  0  0  0
 14 15  2  0  0  0
 14 36  1  0  0  0
 15 16  1  0  0  0
 15 37  1  0  0  0
 17 18  1  0  0  0
 17 38  1  0  0  0
 17 39  1  0  0  0
 18 19  1  0  0  0
 18 40  1  0  0  0
 18 41  1  0  0  0
 19 20  1  0  0  0
 20 26  2  0  0  0
 20 21  1  0  0  0
 21 22  2  0  0  0
 21 42  1  0  0  0
 22 23  1  0  0  0
 22 43  1  0  0  0
 23 24  1  0  0  0
 23 25  2  0  0  0
 25 26  1  0  0  0
 25 44  1  0  0  0
M  END
> <r_i_docking_score>
-6.61434050839566

$$$$
ligprep_5.maegz:148
                    3D
 Schrodinger Suite 2020-4.
 39 42  0  0  1  0            999 V2000
   10.5894   -2.4443   23.3408 C   0  0  0  0  0  0
   10.1938   -1.1652   22.7762 N   0  0  0  0  0  0
   10.9543   -0.0133   22.8088 C   0  0  0  0  0  0
   10.3648    1.0384   22.3071 N   0  0  0  0  0  0
    9.1383    0.5726   21.9235 C   0  0  0  0  0  0
    8.0716    1.2570   21.3301 C   0  0  0  0  0  0
    6.9131    0.6281   21.0233 N   0  0  0  0  0  0
    6.7803   -0.6885   21.3140 C   0  0  0  0  0  0
    7.7702   -1.4880   21.9169 C   0  0  0  0  0  0
    7.6224   -2.8557   22.2333 N   0  0  0  0  0  0
    6.5958   -3.7020   21.9917 C   0  0  0  0  0  0
    5.5702   -3.3933   21.3801 O   0  0  0  0  0  0
    6.7907   -5.1597   22.5036 C   0  0  2  0  0  0
    5.7208   -6.1351   21.9561 C   0  0  0  0  0  0
    4.3833   -5.9724   22.7102 C   0  0  0  0  0  0
    4.5430   -6.2467   24.0990 O   0  0  0  0  0  0
    5.6262   -5.6528   24.7239 C   0  0  0  0  0  0
    5.5792   -5.6584   26.1195 C   0  0  0  0  0  0
    6.6713   -5.2041   26.8592 C   0  0  0  0  0  0
    7.8142   -4.7563   26.2014 C   0  0  0  0  0  0
    9.1693   -4.1993   27.1048 Cl  0  0  0  0  0  0
    7.8637   -4.7575   24.8096 C   0  0  0  0  0  0
    6.7783   -5.2016   24.0396 C   0  0  0  0  0  0
    8.9750   -0.8115   22.2089 C   0  0  0  0  0  0
   11.6747   -2.4844   23.4853 H   0  0  0  0  0  0
   10.0955   -2.5773   24.3034 H   0  0  0  0  0  0
   10.3046   -3.2477   22.6626 H   0  0  0  0  0  0
   11.9478   -0.0327   23.2310 H   0  0  0  0  0  0
    8.1299    2.3122   21.1080 H   0  0  0  0  0  0
    5.8116   -1.0782   21.0456 H   0  0  0  0  0  0
    8.4185   -3.2624   22.7000 H   0  0  0  0  0  0
    7.7711   -5.4437   22.1118 H   0  0  0  0  0  0
    6.0675   -7.1596   22.0992 H   0  0  0  0  0  0
    5.5712   -6.0037   20.8832 H   0  0  0  0  0  0
    3.6320   -6.6539   22.3094 H   0  0  0  0  0  0
    3.9819   -4.9639   22.5919 H   0  0  0  0  0  0
    4.7052   -6.0405   26.6270 H   0  0  0  0  0  0
    6.6392   -5.2242   27.9406 H   0  0  0  0  0  0
    8.7665   -4.4223   24.3252 H   0  0  0  0  0  0
  1  2  1  0  0  0
  1 25  1  0  0  0
  1 26  1  0  0  0
  1 27  1  0  0  0
  2 24  1  0  0  0
  2  3  1  0  0  0
  3  4  2  0  0  0
  3 28  1  0  0  0
  4  5  1  0  0  0
  5 24  2  0  0  0
  5  6  1  0  0  0
  6  7  2  0  0  0
  6 29  1  0  0  0
  7  8  1  0  0  0
  8  9  2  0  0  0
  8 30  1  0  0  0
  9 10  1  0  0  0
  9 24  1  0  0  0
 10 11  1  0  0  0
 10 31  1  0  0  0
 11 12  2  0  0  0
 11 13  1  0  0  0
 13 23  1  0  0  0
 13 14  1  0  0  0
 13 32  1  0  0  0
 14 15  1  0  0  0
 14 33  1  0  0  0
 14 34  1  0  0  0
 15 16  1  0  0  0
 15 35  1  0  0  0
 15 36  1  0  0  0
 16 17  1  0  0  0
 17 23  2  0  0  0
 17 18  1  0  0  0
 18 19  2  0  0  0
 18 37  1  0  0  0
 19 20  1  0  0  0
 19 38  1  0  0  0
 20 21  1  0  0  0
 20 22  2  0  0  0
 22 23  1  0  0  0
 22 39  1  0  0  0
M  END
> <r_i_docking_score>
-6.26506629389912

$$$$
ligprep_5.maegz:149
                    3D
 Schrodinger Suite 2020-4.
 52 55  0  0  1  0            999 V2000
    6.4088    0.6649   26.8110 C   0  0  0  0  0  0
    5.5927   -0.4281   26.2708 N   0  0  0  0  0  0
    4.4989   -0.8197   27.1648 C   0  0  0  0  0  0
    5.7932   -1.0332   25.0699 C   0  0  0  0  0  0
    5.0681   -1.9484   24.6763 O   0  0  0  0  0  0
    6.9765   -0.5617   24.1874 C   0  0  0  0  0  0
    7.2367   -1.2843   22.8078 C   0  0  2  0  0  0
    8.6152   -0.7202   22.3063 C   0  0  0  0  0  0
    8.6599    0.0900   21.3744 O   0  0  0  0  0  0
    9.7306   -1.1031   22.9674 N   0  0  0  0  0  0
   11.0040   -0.5435   22.7831 C   0  0  0  0  0  0
   12.0445   -1.4057   22.4267 C   0  0  0  0  0  0
   13.3127   -0.9959   22.1935 N   0  0  0  0  0  0
   13.5696    0.3259   22.3079 C   0  0  0  0  0  0
   12.6219    1.3046   22.6685 C   0  0  0  0  0  0
   12.9389    2.6834   22.7203 C   0  0  0  0  0  0
   11.9722    3.6065   23.1054 C   0  0  0  0  0  0
   10.6903    3.1853   23.4380 C   0  0  0  0  0  0
   10.3449    1.8379   23.3673 C   0  0  0  0  0  0
   11.2933    0.8596   22.9479 C   0  0  0  0  0  0
    6.1230   -0.9099   21.7857 C   0  0  0  0  0  0
    6.1737   -1.7708   20.5164 C   0  0  0  0  0  0
    5.9402   -3.1368   20.8627 O   0  0  0  0  0  0
    6.6973   -3.6350   21.9079 C   0  0  0  0  0  0
    6.7379   -5.0269   21.9745 C   0  0  0  0  0  0
    7.3793   -5.6529   23.0374 C   0  0  0  0  0  0
    7.9697   -4.8874   24.0390 C   0  0  0  0  0  0
    8.7692   -5.6529   25.3638 Cl  0  0  0  0  0  0
    7.9445   -3.4974   23.9607 C   0  0  0  0  0  0
    7.3106   -2.8312   22.8984 C   0  0  0  0  0  0
    7.2341    0.9733   26.1704 H   0  0  0  0  0  0
    5.7859    1.5442   26.9810 H   0  0  0  0  0  0
    6.8374    0.3723   27.7711 H   0  0  0  0  0  0
    4.8957   -1.1341   28.1305 H   0  0  0  0  0  0
    3.8304    0.0248   27.3342 H   0  0  0  0  0  0
    3.8973   -1.6421   26.7749 H   0  0  0  0  0  0
    7.8594   -0.6455   24.8226 H   0  0  0  0  0  0
    6.8258    0.5026   23.9975 H   0  0  0  0  0  0
    9.6811   -1.9576   23.4996 H   0  0  0  0  0  0
   11.8654   -2.4637   22.2898 H   0  0  0  0  0  0
   14.5752    0.6392   22.0734 H   0  0  0  0  0  0
   13.9397    3.0119   22.4770 H   0  0  0  0  0  0
   12.2185    4.6574   23.1495 H   0  0  0  0  0  0
    9.9500    3.9131   23.7375 H   0  0  0  0  0  0
    9.3383    1.5430   23.6191 H   0  0  0  0  0  0
    6.1138    0.1537   21.5400 H   0  0  0  0  0  0
    5.1696   -1.1165   22.2495 H   0  0  0  0  0  0
    7.1378   -1.6529   20.0207 H   0  0  0  0  0  0
    5.4106   -1.4491   19.8072 H   0  0  0  0  0  0
    6.2589   -5.6208   21.2105 H   0  0  0  0  0  0
    7.4126   -6.7306   23.0836 H   0  0  0  0  0  0
    8.4077   -2.9332   24.7559 H   0  0  0  0  0  0
  1  2  1  0  0  0
  1 31  1  0  0  0
  1 32  1  0  0  0
  1 33  1  0  0  0
  2  3  1  0  0  0
  2  4  1  0  0  0
  3 34  1  0  0  0
  3 35  1  0  0  0
  3 36  1  0  0  0
  4  5  2  0  0  0
  4  6  1  0  0  0
  6  7  1  0  0  0
  6 37  1  0  0  0
  6 38  1  0  0  0
  7 30  1  0  0  0
  7  8  1  0  0  0
  7 21  1  0  0  0
  8  9  2  0  0  0
  8 10  1  0  0  0
 10 11  1  0  0  0
 10 39  1  0  0  0
 11 20  2  0  0  0
 11 12  1  0  0  0
 12 13  2  0  0  0
 12 40  1  0  0  0
 13 14  1  0  0  0
 14 15  2  0  0  0
 14 41  1  0  0  0
 15 20  1  0  0  0
 15 16  1  0  0  0
 16 17  2  0  0  0
 16 42  1  0  0  0
 17 18  1  0  0  0
 17 43  1  0  0  0
 18 19  2  0  0  0
 18 44  1  0  0  0
 19 20  1  0  0  0
 19 45  1  0  0  0
 21 22  1  0  0  0
 21 46  1  0  0  0
 21 47  1  0  0  0
 22 23  1  0  0  0
 22 48  1  0  0  0
 22 49  1  0  0  0
 23 24  1  0  0  0
 24 30  2  0  0  0
 24 25  1  0  0  0
 25 26  2  0  0  0
 25 50  1  0  0  0
 26 27  1  0  0  0
 26 51  1  0  0  0
 27 28  1  0  0  0
 27 29  2  0  0  0
 29 30  1  0  0  0
 29 52  1  0  0  0
M  END
> <r_i_docking_score>
-6.33879642498476

$$$$
ligprep_5.maegz:150
                    3D
 Schrodinger Suite 2020-4.
 49 52  0  0  1  0            999 V2000
    9.1938   -5.3905   25.5081 C   0  0  0  0  0  0
    9.5699   -4.0149   25.1995 N   0  0  0  0  0  0
    8.7117   -3.0649   24.7916 C   0  0  0  0  0  0
    7.5162   -3.2869   24.6208 O   0  0  0  0  0  0
    9.2871   -1.6466   24.5546 C   0  0  0  0  0  0
    9.5515   -1.1781   23.0668 C   0  0  2  0  0  0
    8.2051   -0.7348   22.3853 C   0  0  0  0  0  0
    7.1250   -0.9045   22.9531 O   0  0  0  0  0  0
    8.2883   -0.1482   21.1683 N   0  0  0  0  0  0
    7.2130    0.3786   20.4326 C   0  0  0  0  0  0
    7.0524   -0.0814   19.1235 C   0  0  0  0  0  0
    6.0469    0.2988   18.3076 N   0  0  0  0  0  0
    5.1673    1.2056   18.7791 C   0  0  0  0  0  0
    5.2248    1.7848   20.0626 C   0  0  0  0  0  0
    4.2837    2.7466   20.4988 C   0  0  0  0  0  0
    4.4013    3.3136   21.7629 C   0  0  0  0  0  0
    5.4433    2.9451   22.6056 C   0  0  0  0  0  0
    6.3801    1.9974   22.2007 C   0  0  0  0  0  0
    6.2899    1.3738   20.9247 C   0  0  0  0  0  0
   10.1954   -2.2975   22.1873 C   0  0  0  0  0  0
   11.6903   -2.4527   22.5112 C   0  0  0  0  0  0
   12.4014   -1.2621   22.2007 O   0  0  0  0  0  0
   11.8641   -0.0969   22.7033 C   0  0  0  0  0  0
   12.7489    0.9814   22.7082 C   0  0  0  0  0  0
   12.3101    2.2399   23.1057 C   0  0  0  0  0  0
   10.9921    2.4132   23.5156 C   0  0  0  0  0  0
   10.4339    3.9801   23.9700 Cl  0  0  0  0  0  0
   10.1172    1.3253   23.5336 C   0  0  0  0  0  0
   10.5114    0.0479   23.0932 C   0  0  0  0  0  0
   10.0680   -5.9585   25.8282 H   0  0  0  0  0  0
    8.4608   -5.4215   26.3141 H   0  0  0  0  0  0
    8.7673   -5.8858   24.6350 H   0  0  0  0  0  0
   10.5472   -3.7838   25.3019 H   0  0  0  0  0  0
   10.2204   -1.5676   25.1069 H   0  0  0  0  0  0
    8.6330   -0.9392   25.0680 H   0  0  0  0  0  0
    9.1654   -0.2566   20.6791 H   0  0  0  0  0  0
    7.7257   -0.8158   18.7037 H   0  0  0  0  0  0
    4.3744    1.4928   18.1048 H   0  0  0  0  0  0
    3.4941    3.0625   19.8307 H   0  0  0  0  0  0
    3.6920    4.0649   22.0798 H   0  0  0  0  0  0
    5.5283    3.4061   23.5795 H   0  0  0  0  0  0
    7.1788    1.7394   22.8755 H   0  0  0  0  0  0
   10.1226   -2.0749   21.1208 H   0  0  0  0  0  0
    9.6803   -3.2526   22.3079 H   0  0  0  0  0  0
   12.1253   -3.2528   21.9220 H   0  0  0  0  0  0
   11.8305   -2.7098   23.5630 H   0  0  0  0  0  0
   13.7671    0.8471   22.3771 H   0  0  0  0  0  0
   12.9908    3.0785   23.0913 H   0  0  0  0  0  0
    9.1083    1.4852   23.8792 H   0  0  0  0  0  0
  1  2  1  0  0  0
  1 30  1  0  0  0
  1 31  1  0  0  0
  1 32  1  0  0  0
  2  3  1  0  0  0
  2 33  1  0  0  0
  3  4  2  0  0  0
  3  5  1  0  0  0
  5  6  1  0  0  0
  5 34  1  0  0  0
  5 35  1  0  0  0
  6 29  1  0  0  0
  6  7  1  0  0  0
  6 20  1  0  0  0
  7  8  2  0  0  0
  7  9  1  0  0  0
  9 10  1  0  0  0
  9 36  1  0  0  0
 10 19  2  0  0  0
 10 11  1  0  0  0
 11 12  2  0  0  0
 11 37  1  0  0  0
 12 13  1  0  0  0
 13 14  2  0  0  0
 13 38  1  0  0  0
 14 19  1  0  0  0
 14 15  1  0  0  0
 15 16  2  0  0  0
 15 39  1  0  0  0
 16 17  1  0  0  0
 16 40  1  0  0  0
 17 18  2  0  0  0
 17 41  1  0  0  0
 18 19  1  0  0  0
 18 42  1  0  0  0
 20 21  1  0  0  0
 20 43  1  0  0  0
 20 44  1  0  0  0
 21 22  1  0  0  0
 21 45  1  0  0  0
 21 46  1  0  0  0
 22 23  1  0  0  0
 23 29  2  0  0  0
 23 24  1  0  0  0
 24 25  2  0  0  0
 24 47  1  0  0  0
 25 26  1  0  0  0
 25 48  1  0  0  0
 26 27  1  0  0  0
 26 28  2  0  0  0
 28 29  1  0  0  0
 28 49  1  0  0  0
M  END
> <r_i_docking_score>
-5.98731158374239

$$$$
ligprep_5.maegz:151
                    3D
 Schrodinger Suite 2020-4.
 39 42  0  0  1  0            999 V2000
    9.9698   -1.2277   24.7083 O   0  0  0  0  0  0
    9.7487   -1.5861   23.5521 C   0  0  0  0  0  0
    8.6690   -2.3122   23.1846 N   0  0  0  0  0  0
    7.5991   -2.7596   23.9972 C   0  0  0  0  0  0
    7.2384   -2.1321   25.2043 C   0  0  0  0  0  0
    6.2154   -2.5260   25.9960 N   0  0  0  0  0  0
    5.4811   -3.5800   25.5840 C   0  0  0  0  0  0
    5.7054   -4.2887   24.3870 C   0  0  0  0  0  0
    4.8868   -5.3720   23.9897 C   0  0  0  0  0  0
    5.1504   -6.0362   22.7978 C   0  0  0  0  0  0
    6.2208   -5.6591   21.9942 C   0  0  0  0  0  0
    7.0427   -4.5956   22.3606 C   0  0  0  0  0  0
    6.8021   -3.8732   23.5658 C   0  0  0  0  0  0
   10.7765   -1.2363   22.4485 C   0  0  2  0  0  0
   11.9339   -2.2573   22.5299 C   0  0  0  0  0  0
   13.1655   -1.7618   21.7651 C   0  0  0  0  0  0
   13.6318   -0.5260   22.3080 O   0  0  0  0  0  0
   12.6791    0.4628   22.4660 C   0  0  0  0  0  0
   13.1744    1.7660   22.5189 C   0  0  0  0  0  0
   12.3114    2.8398   22.7129 C   0  0  0  0  0  0
   12.8129    4.0969   22.7713 F   0  0  0  0  0  0
   10.9411    2.6083   22.8521 C   0  0  0  0  0  0
    9.8512    3.9230   23.1078 Cl  0  0  0  0  0  0
   10.4452    1.3032   22.7861 C   0  0  0  0  0  0
   11.3005    0.2019   22.6153 C   0  0  0  0  0  0
    8.6402   -2.6224   22.2269 H   0  0  0  0  0  0
    7.7584   -1.2623   25.5712 H   0  0  0  0  0  0
    4.6666   -3.8701   26.2331 H   0  0  0  0  0  0
    4.0574   -5.6786   24.6121 H   0  0  0  0  0  0
    4.5162   -6.8524   22.4940 H   0  0  0  0  0  0
    6.4150   -6.1987   21.0788 H   0  0  0  0  0  0
    7.8697   -4.3273   21.7209 H   0  0  0  0  0  0
   10.2650   -1.3347   21.4891 H   0  0  0  0  0  0
   11.6159   -3.2189   22.1267 H   0  0  0  0  0  0
   12.2380   -2.4429   23.5588 H   0  0  0  0  0  0
   12.9274   -1.6528   20.7082 H   0  0  0  0  0  0
   13.9679   -2.4940   21.8340 H   0  0  0  0  0  0
   14.2331    1.9481   22.4019 H   0  0  0  0  0  0
    9.3799    1.1438   22.8796 H   0  0  0  0  0  0
  1  2  2  0  0  0
  2  3  1  0  0  0
  2 14  1  0  0  0
  3  4  1  0  0  0
  3 26  1  0  0  0
  4 13  2  0  0  0
  4  5  1  0  0  0
  5  6  2  0  0  0
  5 27  1  0  0  0
  6  7  1  0  0  0
  7  8  2  0  0  0
  7 28  1  0  0  0
  8 13  1  0  0  0
  8  9  1  0  0  0
  9 10  2  0  0  0
  9 29  1  0  0  0
 10 11  1  0  0  0
 10 30  1  0  0  0
 11 12  2  0  0  0
 11 31  1  0  0  0
 12 13  1  0  0  0
 12 32  1  0  0  0
 14 25  1  0  0  0
 14 15  1  0  0  0
 14 33  1  0  0  0
 15 16  1  0  0  0
 15 34  1  0  0  0
 15 35  1  0  0  0
 16 17  1  0  0  0
 16 36  1  0  0  0
 16 37  1  0  0  0
 17 18  1  0  0  0
 18 25  2  0  0  0
 18 19  1  0  0  0
 19 20  2  0  0  0
 19 38  1  0  0  0
 20 21  1  0  0  0
 20 22  1  0  0  0
 22 23  1  0  0  0
 22 24  2  0  0  0
 24 25  1  0  0  0
 24 39  1  0  0  0
M  END
> <r_i_docking_score>
-6.64634558147065

$$$$
ligprep_5.maegz:152
                    3D
 Schrodinger Suite 2020-4.
 34 36  0  0  1  0            999 V2000
    9.5261    1.5487   21.1086 O   0  0  0  0  0  0
    8.8194    1.9233   22.0418 C   0  0  0  0  0  0
    7.3728    1.4012   22.1665 C   0  0  0  0  0  0
    6.6946    1.1305   20.8189 C   0  0  0  0  0  0
    5.6532    1.9564   20.3818 C   0  0  0  0  0  0
    5.0905    1.7639   19.1226 C   0  0  0  0  0  0
    5.5694    0.7438   18.3039 C   0  0  0  0  0  0
    6.5719   -0.1114   18.7460 C   0  0  0  0  0  0
    7.1319    0.0753   20.0072 C   0  0  0  0  0  0
    9.2332    2.7726   23.0087 N   0  0  0  0  0  0
   10.4806    3.4340   23.1328 C   0  0  0  0  0  0
   11.6624    2.9618   22.5325 C   0  0  0  0  0  0
   12.8550    3.5967   22.5861 N   0  0  0  0  0  0
   12.9147    4.7435   23.2929 C   0  0  0  0  0  0
   11.8329    5.3021   24.0072 C   0  0  0  0  0  0
   11.9634    6.4688   24.7977 C   0  0  0  0  0  0
   10.8628    6.9747   25.4827 C   0  0  0  0  0  0
    9.6242    6.3523   25.3843 C   0  0  0  0  0  0
    9.4652    5.2006   24.6189 C   0  0  0  0  0  0
   10.5700    4.6335   23.9171 C   0  0  0  0  0  0
    6.7751    2.1066   22.7470 H   0  0  0  0  0  0
    7.4035    0.4722   22.7356 H   0  0  0  0  0  0
    5.2953    2.7708   20.9962 H   0  0  0  0  0  0
    4.3062    2.4196   18.7709 H   0  0  0  0  0  0
    5.1464    0.6103   17.3188 H   0  0  0  0  0  0
    6.9297   -0.9059   18.1060 H   0  0  0  0  0  0
    7.9276   -0.5777   20.3402 H   0  0  0  0  0  0
    8.5479    3.0165   23.7064 H   0  0  0  0  0  0
   11.6860    2.0388   21.9771 H   0  0  0  0  0  0
   13.8838    5.2184   23.3182 H   0  0  0  0  0  0
   12.9185    6.9657   24.8650 H   0  0  0  0  0  0
   10.9657    7.8666   26.0841 H   0  0  0  0  0  0
    8.7754    6.7710   25.9075 H   0  0  0  0  0  0
    8.4925    4.7364   24.5635 H   0  0  0  0  0  0
  1  2  2  0  0  0
  2  3  1  0  0  0
  2 10  1  0  0  0
  3  4  1  0  0  0
  3 21  1  0  0  0
  3 22  1  0  0  0
  4  9  2  0  0  0
  4  5  1  0  0  0
  5  6  2  0  0  0
  5 23  1  0  0  0
  6  7  1  0  0  0
  6 24  1  0  0  0
  7  8  2  0  0  0
  7 25  1  0  0  0
  8  9  1  0  0  0
  8 26  1  0  0  0
  9 27  1  0  0  0
 10 11  1  0  0  0
 10 28  1  0  0  0
 11 20  2  0  0  0
 11 12  1  0  0  0
 12 13  2  0  0  0
 12 29  1  0  0  0
 13 14  1  0  0  0
 14 15  2  0  0  0
 14 30  1  0  0  0
 15 20  1  0  0  0
 15 16  1  0  0  0
 16 17  2  0  0  0
 16 31  1  0  0  0
 17 18  1  0  0  0
 17 32  1  0  0  0
 18 19  2  0  0  0
 18 33  1  0  0  0
 19 20  1  0  0  0
 19 34  1  0  0  0
M  END
> <r_i_docking_score>
-6.05795467687468

$$$$
ligprep_5.maegz:154
                    3D
 Schrodinger Suite 2020-4.
 38 40  0  0  1  0            999 V2000
    6.1442   -5.9228   21.2517 C   0  0  0  0  0  0
    5.7733   -4.5502   21.3228 O   0  0  0  0  0  0
    6.4658   -3.7223   22.1876 C   0  0  0  0  0  0
    7.4923   -4.1559   23.0419 C   0  0  0  0  0  0
    8.1413   -3.2515   23.8757 C   0  0  0  0  0  0
    7.7802   -1.9021   23.8629 C   0  0  0  0  0  0
    8.5137   -0.9093   24.7617 C   0  0  0  0  0  0
    9.9172   -0.5743   24.2313 C   0  0  0  0  0  0
   10.7687   -1.4614   24.1963 O   0  0  0  0  0  0
   10.1253    0.7065   23.8644 N   0  0  0  0  0  0
   11.2965    1.3114   23.3553 C   0  0  0  0  0  0
   12.3669    0.5815   22.8092 C   0  0  0  0  0  0
   13.4910    1.1393   22.3083 N   0  0  0  0  0  0
   13.5695    2.4848   22.3075 C   0  0  0  0  0  0
   12.5795    3.3482   22.8223 C   0  0  0  0  0  0
   12.7282    4.7562   22.8286 C   0  0  0  0  0  0
   11.7269    5.5571   23.3692 C   0  0  0  0  0  0
   10.5737    4.9886   23.9003 C   0  0  0  0  0  0
   10.4018    3.6059   23.9068 C   0  0  0  0  0  0
   11.4002    2.7437   23.3679 C   0  0  0  0  0  0
    6.7592   -1.4652   23.0163 C   0  0  0  0  0  0
    6.1057   -2.3741   22.1883 C   0  0  0  0  0  0
    5.5727   -6.4163   20.4683 H   0  0  0  0  0  0
    5.9373   -6.4447   22.1867 H   0  0  0  0  0  0
    7.2007   -6.0414   21.0058 H   0  0  0  0  0  0
    7.8078   -5.1878   23.0691 H   0  0  0  0  0  0
    8.9372   -3.5970   24.5214 H   0  0  0  0  0  0
    7.9163   -0.0057   24.8890 H   0  0  0  0  0  0
    8.6290   -1.3385   25.7569 H   0  0  0  0  0  0
    9.3458    1.3362   23.9827 H   0  0  0  0  0  0
   12.3518   -0.4944   22.7332 H   0  0  0  0  0  0
   14.4824    2.8996   21.9089 H   0  0  0  0  0  0
   13.6235    5.2061   22.4235 H   0  0  0  0  0  0
   11.8401    6.6329   23.3786 H   0  0  0  0  0  0
    9.8068    5.6294   24.3124 H   0  0  0  0  0  0
    9.4986    3.1935   24.3321 H   0  0  0  0  0  0
    6.4636   -0.4252   22.9967 H   0  0  0  0  0  0
    5.3156   -2.0250   21.5392 H   0  0  0  0  0  0
  1  2  1  0  0  0
  1 23  1  0  0  0
  1 24  1  0  0  0
  1 25  1  0  0  0
  2  3  1  0  0  0
  3 22  2  0  0  0
  3  4  1  0  0  0
  4  5  2  0  0  0
  4 26  1  0  0  0
  5  6  1  0  0  0
  5 27  1  0  0  0
  6  7  1  0  0  0
  6 21  2  0  0  0
  7  8  1  0  0  0
  7 28  1  0  0  0
  7 29  1  0  0  0
  8  9  2  0  0  0
  8 10  1  0  0  0
 10 11  1  0  0  0
 10 30  1  0  0  0
 11 20  2  0  0  0
 11 12  1  0  0  0
 12 13  2  0  0  0
 12 31  1  0  0  0
 13 14  1  0  0  0
 14 15  2  0  0  0
 14 32  1  0  0  0
 15 20  1  0  0  0
 15 16  1  0  0  0
 16 17  2  0  0  0
 16 33  1  0  0  0
 17 18  1  0  0  0
 17 34  1  0  0  0
 18 19  2  0  0  0
 18 35  1  0  0  0
 19 20  1  0  0  0
 19 36  1  0  0  0
 21 22  1  0  0  0
 21 37  1  0  0  0
 22 38  1  0  0  0
M  END
> <r_i_docking_score>
-6.39745327710931

$$$$
ligprep_5.maegz:155
                    3D
 Schrodinger Suite 2020-4.
 34 36  0  0  1  0            999 V2000
    8.3168   -1.3021   23.6650 O   0  0  0  0  0  0
    8.3002   -1.4989   22.4510 C   0  0  0  0  0  0
    6.9974   -1.9410   21.7697 C   0  0  0  0  0  0
    6.4019   -3.2141   22.3578 C   0  0  0  0  0  0
    5.2368   -3.1493   23.1290 C   0  0  0  0  0  0
    4.6695   -4.3134   23.6480 C   0  0  0  0  0  0
    5.2626   -5.5524   23.4020 C   0  0  0  0  0  0
    4.7047   -6.6750   23.9154 F   0  0  0  0  0  0
    6.4272   -5.6237   22.6311 C   0  0  0  0  0  0
    7.1704   -7.1486   22.3080 Cl  0  0  0  0  0  0
    6.9955   -4.4586   22.1147 C   0  0  0  0  0  0
    9.3649   -1.3118   21.6443 N   0  0  0  0  0  0
   10.6058   -0.8093   22.0605 C   0  0  0  0  0  0
   11.7189   -1.6536   22.0077 C   0  0  0  0  0  0
   12.9794   -1.2604   22.3070 N   0  0  0  0  0  0
   13.1590    0.0267   22.6757 C   0  0  0  0  0  0
   12.1286    0.9891   22.7546 C   0  0  0  0  0  0
   12.3716    2.3387   23.1055 C   0  0  0  0  0  0
   11.3218    3.2503   23.1443 C   0  0  0  0  0  0
   10.0264    2.8488   22.8394 C   0  0  0  0  0  0
    9.7577    1.5290   22.4849 C   0  0  0  0  0  0
   10.7997    0.5611   22.4397 C   0  0  0  0  0  0
    7.1666   -2.0999   20.7070 H   0  0  0  0  0  0
    6.2839   -1.1185   21.8367 H   0  0  0  0  0  0
    4.7694   -2.1950   23.3277 H   0  0  0  0  0  0
    3.7716   -4.2580   24.2471 H   0  0  0  0  0  0
    7.8984   -4.5230   21.5236 H   0  0  0  0  0  0
    9.3242   -1.6675   20.7009 H   0  0  0  0  0  0
   11.6098   -2.6846   21.6997 H   0  0  0  0  0  0
   14.1768    0.3138   22.8985 H   0  0  0  0  0  0
   13.3783    2.6592   23.3320 H   0  0  0  0  0  0
   11.5121    4.2823   23.4045 H   0  0  0  0  0  0
    9.2239    3.5706   22.8611 H   0  0  0  0  0  0
    8.7461    1.2440   22.2377 H   0  0  0  0  0  0
  1  2  2  0  0  0
  2  3  1  0  0  0
  2 12  1  0  0  0
  3  4  1  0  0  0
  3 23  1  0  0  0
  3 24  1  0  0  0
  4 11  2  0  0  0
  4  5  1  0  0  0
  5  6  2  0  0  0
  5 25  1  0  0  0
  6  7  1  0  0  0
  6 26  1  0  0  0
  7  8  1  0  0  0
  7  9  2  0  0  0
  9 10  1  0  0  0
  9 11  1  0  0  0
 11 27  1  0  0  0
 12 13  1  0  0  0
 12 28  1  0  0  0
 13 22  2  0  0  0
 13 14  1  0  0  0
 14 15  2  0  0  0
 14 29  1  0  0  0
 15 16  1  0  0  0
 16 17  2  0  0  0
 16 30  1  0  0  0
 17 22  1  0  0  0
 17 18  1  0  0  0
 18 19  2  0  0  0
 18 31  1  0  0  0
 19 20  1  0  0  0
 19 32  1  0  0  0
 20 21  2  0  0  0
 20 33  1  0  0  0
 21 22  1  0  0  0
 21 34  1  0  0  0
M  END
> <r_i_docking_score>
-6.62331697643078

$$$$
ligprep_5.maegz:156
                    3D
 Schrodinger Suite 2020-4.
 34 36  0  0  1  0            999 V2000
    9.5067    1.9469   21.6750 O   0  0  0  0  0  0
    9.1088    1.5477   22.7730 C   0  0  0  0  0  0
   10.1263    1.1476   23.8534 C   0  0  0  0  0  0
   11.2144    0.2533   23.2727 C   0  0  0  0  0  0
   12.4723    0.7799   22.9696 C   0  0  0  0  0  0
   13.4124   -0.0088   22.3129 C   0  0  0  0  0  0
   13.0896   -1.3161   21.9585 C   0  0  0  0  0  0
   13.9684   -2.0605   21.2573 F   0  0  0  0  0  0
   11.8579   -1.8579   22.3066 C   0  0  0  0  0  0
   10.9168   -1.0766   22.9646 C   0  0  0  0  0  0
    7.8069    1.4443   23.1132 N   0  0  0  0  0  0
    6.7154    1.7984   22.2995 C   0  0  0  0  0  0
    5.7765    2.6765   22.8491 C   0  0  0  0  0  0
    4.7025    3.1573   22.1817 N   0  0  0  0  0  0
    4.5298    2.7477   20.9062 C   0  0  0  0  0  0
    5.3713    1.8326   20.2379 C   0  0  0  0  0  0
    5.1403    1.4264   18.9033 C   0  0  0  0  0  0
    5.9766    0.4885   18.3082 C   0  0  0  0  0  0
    7.0439   -0.0552   19.0090 C   0  0  0  0  0  0
    7.3051    0.3393   20.3159 C   0  0  0  0  0  0
    6.4908    1.3133   20.9613 C   0  0  0  0  0  0
    9.6357    0.6277   24.6768 H   0  0  0  0  0  0
   10.5566    2.0556   24.2755 H   0  0  0  0  0  0
   12.7066    1.8116   23.1945 H   0  0  0  0  0  0
   14.3694    0.4094   22.0369 H   0  0  0  0  0  0
   11.6128   -2.8688   22.0188 H   0  0  0  0  0  0
    9.9442   -1.4890   23.1879 H   0  0  0  0  0  0
    7.5959    1.2492   24.0791 H   0  0  0  0  0  0
    5.8928    3.0556   23.8530 H   0  0  0  0  0  0
    3.6897    3.1798   20.3817 H   0  0  0  0  0  0
    4.3113    1.8406   18.3453 H   0  0  0  0  0  0
    5.7936    0.1758   17.2906 H   0  0  0  0  0  0
    7.6777   -0.7899   18.5289 H   0  0  0  0  0  0
    8.1380   -0.1030   20.8370 H   0  0  0  0  0  0
  1  2  2  0  0  0
  2  3  1  0  0  0
  2 11  1  0  0  0
  3  4  1  0  0  0
  3 22  1  0  0  0
  3 23  1  0  0  0
  4 10  2  0  0  0
  4  5  1  0  0  0
  5  6  2  0  0  0
  5 24  1  0  0  0
  6  7  1  0  0  0
  6 25  1  0  0  0
  7  8  1  0  0  0
  7  9  2  0  0  0
  9 10  1  0  0  0
  9 26  1  0  0  0
 10 27  1  0  0  0
 11 12  1  0  0  0
 11 28  1  0  0  0
 12 21  2  0  0  0
 12 13  1  0  0  0
 13 14  2  0  0  0
 13 29  1  0  0  0
 14 15  1  0  0  0
 15 16  2  0  0  0
 15 30  1  0  0  0
 16 21  1  0  0  0
 16 17  1  0  0  0
 17 18  2  0  0  0
 17 31  1  0  0  0
 18 19  1  0  0  0
 18 32  1  0  0  0
 19 20  2  0  0  0
 19 33  1  0  0  0
 20 21  1  0  0  0
 20 34  1  0  0  0
M  END
> <r_i_docking_score>
-6.89708584295363

$$$$
ligprep_5.maegz:157
                    3D
 Schrodinger Suite 2020-4.
 37 39  0  0  1  0            999 V2000
    2.5090    3.6488   19.1630 C   0  0  0  0  0  0
    3.5678    2.9162   19.9734 C   0  0  0  0  0  0
    4.3677    1.9474   19.3598 C   0  0  0  0  0  0
    5.3653    1.2967   20.0814 C   0  0  0  0  0  0
    5.5793    1.6137   21.4271 C   0  0  0  0  0  0
    6.6379    0.8760   22.2421 C   0  0  0  0  0  0
    8.0779    1.2822   21.9074 C   0  0  0  0  0  0
    8.4570    1.3095   20.7326 O   0  0  0  0  0  0
    8.8724    1.5456   22.9624 N   0  0  0  0  0  0
   10.2462    1.7988   22.8700 C   0  0  0  0  0  0
   10.7020    3.1134   22.9924 C   0  0  0  0  0  0
   12.0049    3.4674   22.9097 N   0  0  0  0  0  0
   12.9057    2.4796   22.7105 C   0  0  0  0  0  0
   12.5827    1.1080   22.5975 C   0  0  0  0  0  0
   13.5578    0.1078   22.3761 C   0  0  0  0  0  0
   13.1725   -1.2212   22.2270 C   0  0  0  0  0  0
   11.8357   -1.5853   22.3072 C   0  0  0  0  0  0
   10.8534   -0.6249   22.5330 C   0  0  0  0  0  0
   11.2019    0.7489   22.6768 C   0  0  0  0  0  0
    4.7958    2.5986   22.0349 C   0  0  0  0  0  0
    3.7825    3.2367   21.3221 C   0  0  0  0  0  0
    2.8127    4.4166   22.1359 Cl  0  0  0  0  0  0
    2.7314    4.7173   19.1686 H   0  0  0  0  0  0
    2.4765    3.3248   18.1246 H   0  0  0  0  0  0
    1.5201    3.5134   19.6018 H   0  0  0  0  0  0
    4.2221    1.7011   18.3169 H   0  0  0  0  0  0
    5.9718    0.5449   19.5960 H   0  0  0  0  0  0
    6.4454    1.0093   23.3082 H   0  0  0  0  0  0
    6.5475   -0.1934   22.0495 H   0  0  0  0  0  0
    8.4464    1.6562   23.8707 H   0  0  0  0  0  0
   10.0069    3.9293   23.1231 H   0  0  0  0  0  0
   13.9388    2.7932   22.6404 H   0  0  0  0  0  0
   14.5951    0.3964   22.3048 H   0  0  0  0  0  0
   13.9204   -1.9791   22.0437 H   0  0  0  0  0  0
   11.5514   -2.6221   22.1807 H   0  0  0  0  0  0
    9.8165   -0.9242   22.5740 H   0  0  0  0  0  0
    4.9523    2.8537   23.0736 H   0  0  0  0  0  0
  1  2  1  0  0  0
  1 23  1  0  0  0
  1 24  1  0  0  0
  1 25  1  0  0  0
  2 21  2  0  0  0
  2  3  1  0  0  0
  3  4  2  0  0  0
  3 26  1  0  0  0
  4  5  1  0  0  0
  4 27  1  0  0  0
  5  6  1  0  0  0
  5 20  2  0  0  0
  6  7  1  0  0  0
  6 28  1  0  0  0
  6 29  1  0  0  0
  7  8  2  0  0  0
  7  9  1  0  0  0
  9 10  1  0  0  0
  9 30  1  0  0  0
 10 19  2  0  0  0
 10 11  1  0  0  0
 11 12  2  0  0  0
 11 31  1  0  0  0
 12 13  1  0  0  0
 13 14  2  0  0  0
 13 32  1  0  0  0
 14 19  1  0  0  0
 14 15  1  0  0  0
 15 16  2  0  0  0
 15 33  1  0  0  0
 16 17  1  0  0  0
 16 34  1  0  0  0
 17 18  2  0  0  0
 17 35  1  0  0  0
 18 19  1  0  0  0
 18 36  1  0  0  0
 20 21  1  0  0  0
 20 37  1  0  0  0
 21 22  1  0  0  0
M  END
> <r_i_docking_score>
-5.68574678528393

$$$$
ligprep_5.maegz:158
                    3D
 Schrodinger Suite 2020-4.
 34 36  0  0  1  0            999 V2000
   10.7936   -1.7340   23.8890 O   0  0  0  0  0  0
    9.9699   -0.8356   24.0578 C   0  0  0  0  0  0
    8.5577   -1.2059   24.5334 C   0  0  0  0  0  0
    7.8940   -2.2354   23.6202 C   0  0  0  0  0  0
    7.0532   -1.8158   22.5824 C   0  0  0  0  0  0
    6.4557   -2.7511   21.7376 C   0  0  0  0  0  0
    6.7051   -4.1128   21.9091 C   0  0  0  0  0  0
    5.9731   -5.2518   20.8358 Cl  0  0  0  0  0  0
    7.5559   -4.5389   22.9327 C   0  0  0  0  0  0
    7.8110   -5.8560   23.1067 F   0  0  0  0  0  0
    8.1513   -3.6029   23.7815 C   0  0  0  0  0  0
   10.2086    0.4839   23.8736 N   0  0  0  0  0  0
   11.3497    1.1419   23.3542 C   0  0  0  0  0  0
   12.4571    0.4614   22.8145 C   0  0  0  0  0  0
   13.5533    1.0697   22.3117 N   0  0  0  0  0  0
   13.5685    2.4198   22.3078 C   0  0  0  0  0  0
   12.5288    3.2402   22.7932 C   0  0  0  0  0  0
   12.6017    4.6567   22.7652 C   0  0  0  0  0  0
   11.5512    5.4178   23.2631 C   0  0  0  0  0  0
   10.4247    4.8010   23.7915 C   0  0  0  0  0  0
   10.3269    3.4115   23.8381 C   0  0  0  0  0  0
   11.3774    2.5841   23.3396 C   0  0  0  0  0  0
    7.9163   -0.3247   24.6096 H   0  0  0  0  0  0
    8.6529   -1.6118   25.5405 H   0  0  0  0  0  0
    6.8625   -0.7645   22.4209 H   0  0  0  0  0  0
    5.8141   -2.4127   20.9392 H   0  0  0  0  0  0
    8.8250   -3.9398   24.5563 H   0  0  0  0  0  0
    9.4656    1.1073   24.1426 H   0  0  0  0  0  0
   12.5095   -0.6143   22.7563 H   0  0  0  0  0  0
   14.4627    2.8736   21.9081 H   0  0  0  0  0  0
   13.4779    5.1405   22.3558 H   0  0  0  0  0  0
   11.6028    6.4938   23.2323 H   0  0  0  0  0  0
    9.6130    5.4087   24.1604 H   0  0  0  0  0  0
    9.4337    2.9713   24.2558 H   0  0  0  0  0  0
  1  2  2  0  0  0
  2  3  1  0  0  0
  2 12  1  0  0  0
  3  4  1  0  0  0
  3 23  1  0  0  0
  3 24  1  0  0  0
  4 11  2  0  0  0
  4  5  1  0  0  0
  5  6  2  0  0  0
  5 25  1  0  0  0
  6  7  1  0  0  0
  6 26  1  0  0  0
  7  8  1  0  0  0
  7  9  2  0  0  0
  9 10  1  0  0  0
  9 11  1  0  0  0
 11 27  1  0  0  0
 12 13  1  0  0  0
 12 28  1  0  0  0
 13 22  2  0  0  0
 13 14  1  0  0  0
 14 15  2  0  0  0
 14 29  1  0  0  0
 15 16  1  0  0  0
 16 17  2  0  0  0
 16 30  1  0  0  0
 17 22  1  0  0  0
 17 18  1  0  0  0
 18 19  2  0  0  0
 18 31  1  0  0  0
 19 20  1  0  0  0
 19 32  1  0  0  0
 20 21  2  0  0  0
 20 33  1  0  0  0
 21 22  1  0  0  0
 21 34  1  0  0  0
M  END
> <r_i_docking_score>
-6.16481437027773

$$$$
ligprep_5.maegz:159
                    3D
 Schrodinger Suite 2020-4.
 34 36  0  0  1  0            999 V2000
    8.2154    0.2865   24.9698 O   0  0  0  0  0  0
    8.5626   -0.2950   23.9428 C   0  0  0  0  0  0
    9.6810   -1.3417   24.0299 C   0  0  0  0  0  0
   10.9998   -0.8571   23.4201 C   0  0  0  0  0  0
   11.5509    0.3852   23.7719 C   0  0  0  0  0  0
   12.7528    0.8118   23.2067 C   0  0  0  0  0  0
   13.4305   -0.0086   22.3069 C   0  0  0  0  0  0
   12.9066   -1.2577   21.9741 C   0  0  0  0  0  0
   13.5709   -2.0601   21.1124 F   0  0  0  0  0  0
   11.6981   -1.6807   22.5289 C   0  0  0  0  0  0
    8.0472   -0.0856   22.7115 N   0  0  0  0  0  0
    7.1052    0.8743   22.2744 C   0  0  0  0  0  0
    6.6489    1.9362   23.0754 C   0  0  0  0  0  0
    5.7592    2.8711   22.6711 N   0  0  0  0  0  0
    5.2886    2.7764   21.4094 C   0  0  0  0  0  0
    5.6640    1.7799   20.4863 C   0  0  0  0  0  0
    5.1529    1.7389   19.1658 C   0  0  0  0  0  0
    5.5693    0.7440   18.2940 C   0  0  0  0  0  0
    6.4765   -0.2238   18.7065 C   0  0  0  0  0  0
    7.0005   -0.2074   19.9950 C   0  0  0  0  0  0
    6.6064    0.7957   20.9273 C   0  0  0  0  0  0
    9.3479   -2.2720   23.5659 H   0  0  0  0  0  0
    9.8564   -1.5794   25.0788 H   0  0  0  0  0  0
   11.0443    1.0306   24.4786 H   0  0  0  0  0  0
   13.1630    1.7758   23.4729 H   0  0  0  0  0  0
   14.3588    0.3276   21.8662 H   0  0  0  0  0  0
   11.3114   -2.6536   22.2556 H   0  0  0  0  0  0
    8.3832   -0.6995   21.9861 H   0  0  0  0  0  0
    6.9936    2.0877   24.0858 H   0  0  0  0  0  0
    4.5939    3.5469   21.1015 H   0  0  0  0  0  0
    4.4511    2.4944   18.8339 H   0  0  0  0  0  0
    5.1822    0.7190   17.2861 H   0  0  0  0  0  0
    6.7874   -0.9874   18.0081 H   0  0  0  0  0  0
    7.7112   -0.9707   20.2722 H   0  0  0  0  0  0
  1  2  2  0  0  0
  2  3  1  0  0  0
  2 11  1  0  0  0
  3  4  1  0  0  0
  3 22  1  0  0  0
  3 23  1  0  0  0
  4 10  2  0  0  0
  4  5  1  0  0  0
  5  6  2  0  0  0
  5 24  1  0  0  0
  6  7  1  0  0  0
  6 25  1  0  0  0
  7  8  2  0  0  0
  7 26  1  0  0  0
  8  9  1  0  0  0
  8 10  1  0  0  0
 10 27  1  0  0  0
 11 12  1  0  0  0
 11 28  1  0  0  0
 12 21  2  0  0  0
 12 13  1  0  0  0
 13 14  2  0  0  0
 13 29  1  0  0  0
 14 15  1  0  0  0
 15 16  2  0  0  0
 15 30  1  0  0  0
 16 21  1  0  0  0
 16 17  1  0  0  0
 17 18  2  0  0  0
 17 31  1  0  0  0
 18 19  1  0  0  0
 18 32  1  0  0  0
 19 20  2  0  0  0
 19 33  1  0  0  0
 20 21  1  0  0  0
 20 34  1  0  0  0
M  END
> <r_i_docking_score>
-6.35176195438169

$$$$
ligprep_5.maegz:160
                    3D
 Schrodinger Suite 2020-4.
 38 40  0  0  1  0            999 V2000
    6.0727   -0.3373   18.0891 C   0  0  0  0  0  0
    5.1598    0.7463   18.1965 O   0  0  0  0  0  0
    5.0766    1.4322   19.3886 C   0  0  0  0  0  0
    4.0520    2.3692   19.5169 C   0  0  0  0  0  0
    3.9297    3.1410   20.6715 C   0  0  0  0  0  0
    4.8562    2.9976   21.7038 C   0  0  0  0  0  0
    5.8979    2.0710   21.5941 C   0  0  0  0  0  0
    6.9146    1.9301   22.7280 C   0  0  0  0  0  0
    8.3961    1.9421   22.3011 C   0  0  0  0  0  0
    8.7325    1.9473   21.1118 O   0  0  0  0  0  0
    9.2858    1.9108   23.3104 N   0  0  0  0  0  0
   10.6611    1.7953   23.0935 C   0  0  0  0  0  0
   11.4468    2.9505   23.0408 C   0  0  0  0  0  0
   12.7693    2.9419   22.7527 N   0  0  0  0  0  0
   13.3473    1.7419   22.5302 C   0  0  0  0  0  0
   12.6735    0.4999   22.5722 C   0  0  0  0  0  0
   13.3156   -0.7320   22.3078 C   0  0  0  0  0  0
   12.5845   -1.9161   22.3078 C   0  0  0  0  0  0
   11.2245   -1.9075   22.5921 C   0  0  0  0  0  0
   10.5685   -0.7130   22.8751 C   0  0  0  0  0  0
   11.2756    0.5229   22.8599 C   0  0  0  0  0  0
    5.9706    1.2607   20.4551 C   0  0  0  0  0  0
    5.9696   -0.8003   17.1092 H   0  0  0  0  0  0
    7.1054    0.0003   18.1901 H   0  0  0  0  0  0
    5.8736   -1.1081   18.8341 H   0  0  0  0  0  0
    3.3586    2.5180   18.7015 H   0  0  0  0  0  0
    3.1421    3.8774   20.7454 H   0  0  0  0  0  0
    4.7671    3.6236   22.5799 H   0  0  0  0  0  0
    6.7586    2.7151   23.4685 H   0  0  0  0  0  0
    6.7120    0.9871   23.2348 H   0  0  0  0  0  0
    8.9640    1.9919   24.2622 H   0  0  0  0  0  0
   11.0030    3.9234   23.1839 H   0  0  0  0  0  0
   14.4023    1.7679   22.2987 H   0  0  0  0  0  0
   14.3690   -0.7434   22.0822 H   0  0  0  0  0  0
   13.0760   -2.8518   22.0868 H   0  0  0  0  0  0
   10.6723   -2.8391   22.5853 H   0  0  0  0  0  0
    9.5090   -0.7247   23.0835 H   0  0  0  0  0  0
    6.7610    0.5296   20.3913 H   0  0  0  0  0  0
  1  2  1  0  0  0
  1 23  1  0  0  0
  1 24  1  0  0  0
  1 25  1  0  0  0
  2  3  1  0  0  0
  3 22  2  0  0  0
  3  4  1  0  0  0
  4  5  2  0  0  0
  4 26  1  0  0  0
  5  6  1  0  0  0
  5 27  1  0  0  0
  6  7  2  0  0  0
  6 28  1  0  0  0
  7  8  1  0  0  0
  7 22  1  0  0  0
  8  9  1  0  0  0
  8 29  1  0  0  0
  8 30  1  0  0  0
  9 10  2  0  0  0
  9 11  1  0  0  0
 11 12  1  0  0  0
 11 31  1  0  0  0
 12 21  2  0  0  0
 12 13  1  0  0  0
 13 14  2  0  0  0
 13 32  1  0  0  0
 14 15  1  0  0  0
 15 16  2  0  0  0
 15 33  1  0  0  0
 16 21  1  0  0  0
 16 17  1  0  0  0
 17 18  2  0  0  0
 17 34  1  0  0  0
 18 19  1  0  0  0
 18 35  1  0  0  0
 19 20  2  0  0  0
 19 36  1  0  0  0
 20 21  1  0  0  0
 20 37  1  0  0  0
 22 38  1  0  0  0
M  END
> <r_i_docking_score>
-6.29164751074799

$$$$
ligprep_5.maegz:161
                    3D
 Schrodinger Suite 2020-4.
 35 37  0  0  1  0            999 V2000
    3.7400    3.5002   21.7044 N   0  0  0  0  0  0
    4.3681    2.7461   21.0890 C   0  0  0  0  0  0
    5.1531    1.7866   20.3228 C   0  0  0  0  0  0
    5.1074    1.7841   18.9253 C   0  0  0  0  0  0
    5.8321    0.8313   18.2076 C   0  0  0  0  0  0
    6.5999   -0.1196   18.8769 C   0  0  0  0  0  0
    6.6489   -0.1278   20.2741 C   0  0  0  0  0  0
    7.4518   -1.1938   21.0120 C   0  0  0  0  0  0
    6.5722   -2.3103   21.6038 C   0  0  0  0  0  0
    5.7037   -2.8530   20.9147 O   0  0  0  0  0  0
    6.8716   -2.6593   22.8730 N   0  0  0  0  0  0
    6.2389   -3.6080   23.7047 C   0  0  0  0  0  0
    4.9052   -4.0101   23.5158 C   0  0  0  0  0  0
    4.2585   -4.9003   24.3015 N   0  0  0  0  0  0
    4.9420   -5.4199   25.3431 C   0  0  0  0  0  0
    6.2762   -5.0914   25.6709 C   0  0  0  0  0  0
    6.9422   -5.6493   26.7874 C   0  0  0  0  0  0
    8.2586   -5.2937   27.0611 C   0  0  0  0  0  0
    8.9346   -4.3965   26.2451 C   0  0  0  0  0  0
    8.3028   -3.8251   25.1436 C   0  0  0  0  0  0
    6.9527   -4.1562   24.8248 C   0  0  0  0  0  0
    5.9299    0.8342   20.9911 C   0  0  0  0  0  0
    4.5160    2.5160   18.3864 H   0  0  0  0  0  0
    5.7980    0.8308   17.1274 H   0  0  0  0  0  0
    7.1497   -0.8545   18.3058 H   0  0  0  0  0  0
    8.1714   -1.6509   20.3351 H   0  0  0  0  0  0
    8.0377   -0.7089   21.7935 H   0  0  0  0  0  0
    7.6773   -2.2080   23.2780 H   0  0  0  0  0  0
    4.2994   -3.5990   22.7242 H   0  0  0  0  0  0
    4.4013   -6.1261   25.9565 H   0  0  0  0  0  0
    6.4300   -6.3633   27.4175 H   0  0  0  0  0  0
    8.7675   -5.7337   27.9060 H   0  0  0  0  0  0
    9.9609   -4.1488   26.4696 H   0  0  0  0  0  0
    8.8518   -3.1305   24.5264 H   0  0  0  0  0  0
    5.9478    0.8147   22.0739 H   0  0  0  0  0  0
  1  2  3  0  0  0
  2  3  1  0  0  0
  3 22  2  0  0  0
  3  4  1  0  0  0
  4  5  2  0  0  0
  4 23  1  0  0  0
  5  6  1  0  0  0
  5 24  1  0  0  0
  6  7  2  0  0  0
  6 25  1  0  0  0
  7  8  1  0  0  0
  7 22  1  0  0  0
  8  9  1  0  0  0
  8 26  1  0  0  0
  8 27  1  0  0  0
  9 10  2  0  0  0
  9 11  1  0  0  0
 11 12  1  0  0  0
 11 28  1  0  0  0
 12 21  2  0  0  0
 12 13  1  0  0  0
 13 14  2  0  0  0
 13 29  1  0  0  0
 14 15  1  0  0  0
 15 16  2  0  0  0
 15 30  1  0  0  0
 16 21  1  0  0  0
 16 17  1  0  0  0
 17 18  2  0  0  0
 17 31  1  0  0  0
 18 19  1  0  0  0
 18 32  1  0  0  0
 19 20  2  0  0  0
 19 33  1  0  0  0
 20 21  1  0  0  0
 20 34  1  0  0  0
 22 35  1  0  0  0
M  END
> <r_i_docking_score>
-5.78795926489005

$$$$
ligprep_5.maegz:162
                    3D
 Schrodinger Suite 2020-4.
 37 39  0  0  1  0            999 V2000
    5.2656    1.2409   18.2760 C   0  0  0  0  0  0
    4.9815    1.8659   19.6283 C   0  0  0  0  0  0
    3.8921    2.7281   19.7817 C   0  0  0  0  0  0
    3.6199    3.2992   21.0245 C   0  0  0  0  0  0
    4.4434    3.0221   22.1151 C   0  0  0  0  0  0
    5.5357    2.1585   21.9751 C   0  0  0  0  0  0
    6.4111    1.8319   23.1815 C   0  0  0  0  0  0
    7.8272    2.4098   23.0586 C   0  0  0  0  0  0
    7.9751    3.6272   22.9750 O   0  0  0  0  0  0
    8.8242    1.5000   23.0510 N   0  0  0  0  0  0
   10.2212    1.6830   22.9452 C   0  0  0  0  0  0
   10.8539    2.9338   23.0610 C   0  0  0  0  0  0
   12.1874    3.1256   22.9453 N   0  0  0  0  0  0
   12.9527    2.0407   22.7080 C   0  0  0  0  0  0
   12.4624    0.7242   22.5838 C   0  0  0  0  0  0
   13.3059   -0.3781   22.3080 C   0  0  0  0  0  0
   12.7686   -1.6537   22.1719 C   0  0  0  0  0  0
   11.4013   -1.8578   22.3077 C   0  0  0  0  0  0
   10.5447   -0.7922   22.5691 C   0  0  0  0  0  0
   11.0504    0.5337   22.7092 C   0  0  0  0  0  0
    5.7987    1.5814   20.7259 C   0  0  0  0  0  0
    6.0695    0.5047   18.3150 H   0  0  0  0  0  0
    4.3693    0.7467   17.9085 H   0  0  0  0  0  0
    5.5250    2.0056   17.5459 H   0  0  0  0  0  0
    3.2675    2.9678   18.9326 H   0  0  0  0  0  0
    2.7869    3.9775   21.1330 H   0  0  0  0  0  0
    4.2283    3.4809   23.0685 H   0  0  0  0  0  0
    5.9676    2.2316   24.0937 H   0  0  0  0  0  0
    6.4318    0.7485   23.3080 H   0  0  0  0  0  0
    8.5332    0.5370   23.1094 H   0  0  0  0  0  0
   10.3029    3.8420   23.2468 H   0  0  0  0  0  0
   14.0104    2.2287   22.6035 H   0  0  0  0  0  0
   14.3665   -0.2186   22.2040 H   0  0  0  0  0  0
   13.4129   -2.4941   21.9580 H   0  0  0  0  0  0
   10.9977   -2.8527   22.1895 H   0  0  0  0  0  0
    9.4861   -0.9844   22.6498 H   0  0  0  0  0  0
    6.6378    0.9109   20.6105 H   0  0  0  0  0  0
  1  2  1  0  0  0
  1 22  1  0  0  0
  1 23  1  0  0  0
  1 24  1  0  0  0
  2 21  2  0  0  0
  2  3  1  0  0  0
  3  4  2  0  0  0
  3 25  1  0  0  0
  4  5  1  0  0  0
  4 26  1  0  0  0
  5  6  2  0  0  0
  5 27  1  0  0  0
  6  7  1  0  0  0
  6 21  1  0  0  0
  7  8  1  0  0  0
  7 28  1  0  0  0
  7 29  1  0  0  0
  8  9  2  0  0  0
  8 10  1  0  0  0
 10 11  1  0  0  0
 10 30  1  0  0  0
 11 20  2  0  0  0
 11 12  1  0  0  0
 12 13  2  0  0  0
 12 31  1  0  0  0
 13 14  1  0  0  0
 14 15  2  0  0  0
 14 32  1  0  0  0
 15 20  1  0  0  0
 15 16  1  0  0  0
 16 17  2  0  0  0
 16 33  1  0  0  0
 17 18  1  0  0  0
 17 34  1  0  0  0
 18 19  2  0  0  0
 18 35  1  0  0  0
 19 20  1  0  0  0
 19 36  1  0  0  0
 21 37  1  0  0  0
M  END
> <r_i_docking_score>
-4.89858586707028

$$$$
ligprep_5.maegz:163
                    3D
 Schrodinger Suite 2020-4.
 34 36  0  0  1  0            999 V2000
    8.6913    1.5480   21.1069 O   0  0  0  0  0  0
    8.3200    1.7109   22.2716 C   0  0  0  0  0  0
    6.8268    1.6909   22.6550 C   0  0  0  0  0  0
    5.8237    1.9314   21.5209 C   0  0  0  0  0  0
    4.7371    2.7871   21.7364 C   0  0  0  0  0  0
    3.7823    2.9888   20.7394 C   0  0  0  0  0  0
    2.7256    3.8007   20.9702 F   0  0  0  0  0  0
    3.9169    2.3534   19.5070 C   0  0  0  0  0  0
    4.9872    1.4898   19.2852 C   0  0  0  0  0  0
    5.1864    0.7162   17.7600 Cl  0  0  0  0  0  0
    5.9114    1.2512   20.2978 C   0  0  0  0  0  0
    9.1871    1.8574   23.2922 N   0  0  0  0  0  0
   10.5725    1.7758   23.1093 C   0  0  0  0  0  0
   11.3221    2.9553   23.0825 C   0  0  0  0  0  0
   12.6463    2.9930   22.8084 N   0  0  0  0  0  0
   13.2639    1.8153   22.5671 C   0  0  0  0  0  0
   12.6329    0.5517   22.5894 C   0  0  0  0  0  0
   13.3165   -0.6547   22.3079 C   0  0  0  0  0  0
   12.6297   -1.8656   22.3076 C   0  0  0  0  0  0
   11.2719   -1.9056   22.5990 C   0  0  0  0  0  0
   10.5738   -0.7364   22.8836 C   0  0  0  0  0  0
   11.2343    0.5250   22.8740 C   0  0  0  0  0  0
    6.6562    2.4062   23.4600 H   0  0  0  0  0  0
    6.6074    0.7094   23.0733 H   0  0  0  0  0  0
    4.6183    3.2991   22.6794 H   0  0  0  0  0  0
    3.2006    2.5424   18.7206 H   0  0  0  0  0  0
    6.7082    0.5469   20.1113 H   0  0  0  0  0  0
    8.8435    2.1389   24.1978 H   0  0  0  0  0  0
   10.8468    3.9148   23.2281 H   0  0  0  0  0  0
   14.3162    1.8808   22.3273 H   0  0  0  0  0  0
   14.3690   -0.6282   22.0812 H   0  0  0  0  0  0
   13.1502   -2.7854   22.0806 H   0  0  0  0  0  0
   10.7525   -2.8529   22.5888 H   0  0  0  0  0  0
    9.5164   -0.7883   23.0953 H   0  0  0  0  0  0
  1  2  2  0  0  0
  2  3  1  0  0  0
  2 12  1  0  0  0
  3  4  1  0  0  0
  3 23  1  0  0  0
  3 24  1  0  0  0
  4 11  2  0  0  0
  4  5  1  0  0  0
  5  6  2  0  0  0
  5 25  1  0  0  0
  6  7  1  0  0  0
  6  8  1  0  0  0
  8  9  2  0  0  0
  8 26  1  0  0  0
  9 10  1  0  0  0
  9 11  1  0  0  0
 11 27  1  0  0  0
 12 13  1  0  0  0
 12 28  1  0  0  0
 13 22  2  0  0  0
 13 14  1  0  0  0
 14 15  2  0  0  0
 14 29  1  0  0  0
 15 16  1  0  0  0
 16 17  2  0  0  0
 16 30  1  0  0  0
 17 22  1  0  0  0
 17 18  1  0  0  0
 18 19  2  0  0  0
 18 31  1  0  0  0
 19 20  1  0  0  0
 19 32  1  0  0  0
 20 21  2  0  0  0
 20 33  1  0  0  0
 21 22  1  0  0  0
 21 34  1  0  0  0
M  END
> <r_i_docking_score>
-6.35856583759277

$$$$
ligprep_5.maegz:164
                    3D
 Schrodinger Suite 2020-4.
 34 36  0  0  1  0            999 V2000
    8.6585    1.5469   21.0574 O   0  0  0  0  0  0
    8.2481    1.6457   22.2166 C   0  0  0  0  0  0
    6.7444    1.5624   22.5431 C   0  0  0  0  0  0
    5.7873    1.8509   21.3819 C   0  0  0  0  0  0
    4.7274    2.7473   21.5649 C   0  0  0  0  0  0
    3.8139    2.9814   20.5379 C   0  0  0  0  0  0
    2.7724    3.8194   20.7387 F   0  0  0  0  0  0
    3.9712    2.3472   19.3079 C   0  0  0  0  0  0
    5.0132    1.4422   19.1173 C   0  0  0  0  0  0
    5.1694    0.8118   17.9318 F   0  0  0  0  0  0
    5.8961    1.1728   20.1596 C   0  0  0  0  0  0
    9.0781    1.7784   23.2705 N   0  0  0  0  0  0
   10.4705    1.7574   23.1240 C   0  0  0  0  0  0
   11.1719    2.9670   23.1303 C   0  0  0  0  0  0
   12.4992    3.0622   22.8897 N   0  0  0  0  0  0
   13.1695    1.9156   22.6350 C   0  0  0  0  0  0
   12.5872    0.6282   22.6163 C   0  0  0  0  0  0
   13.3200   -0.5437   22.3081 C   0  0  0  0  0  0
   12.6878   -1.7836   22.3074 C   0  0  0  0  0  0
   11.3318   -1.8842   22.5894 C   0  0  0  0  0  0
   10.5802   -0.7473   22.8717 C   0  0  0  0  0  0
   11.1891    0.5393   22.8843 C   0  0  0  0  0  0
    6.5215    2.2207   23.3840 H   0  0  0  0  0  0
    6.5347    0.5505   22.8908 H   0  0  0  0  0  0
    4.5909    3.2592   22.5047 H   0  0  0  0  0  0
    3.2850    2.5650   18.5051 H   0  0  0  0  0  0
    6.6749    0.4439   19.9980 H   0  0  0  0  0  0
    8.6988    2.0052   24.1771 H   0  0  0  0  0  0
   10.6533    3.9040   23.2757 H   0  0  0  0  0  0
   14.2204    2.0258   22.4128 H   0  0  0  0  0  0
   14.3695   -0.4709   22.0859 H   0  0  0  0  0  0
   13.2489   -2.6782   22.0771 H   0  0  0  0  0  0
   10.8531   -2.8522   22.5692 H   0  0  0  0  0  0
    9.5234   -0.8444   23.0695 H   0  0  0  0  0  0
  1  2  2  0  0  0
  2  3  1  0  0  0
  2 12  1  0  0  0
  3  4  1  0  0  0
  3 23  1  0  0  0
  3 24  1  0  0  0
  4 11  2  0  0  0
  4  5  1  0  0  0
  5  6  2  0  0  0
  5 25  1  0  0  0
  6  7  1  0  0  0
  6  8  1  0  0  0
  8  9  2  0  0  0
  8 26  1  0  0  0
  9 10  1  0  0  0
  9 11  1  0  0  0
 11 27  1  0  0  0
 12 13  1  0  0  0
 12 28  1  0  0  0
 13 22  2  0  0  0
 13 14  1  0  0  0
 14 15  2  0  0  0
 14 29  1  0  0  0
 15 16  1  0  0  0
 16 17  2  0  0  0
 16 30  1  0  0  0
 17 22  1  0  0  0
 17 18  1  0  0  0
 18 19  2  0  0  0
 18 31  1  0  0  0
 19 20  1  0  0  0
 19 32  1  0  0  0
 20 21  2  0  0  0
 20 33  1  0  0  0
 21 22  1  0  0  0
 21 34  1  0  0  0
M  END
> <r_i_docking_score>
-6.64580270341922

$$$$
ligprep_5.maegz:165
                    3D
 Schrodinger Suite 2020-4.
 35 37  0  0  1  0            999 V2000
    4.2915    3.6634   22.7070 N   0  0  0  0  0  0
    4.7667    2.9059   21.9711 C   0  0  0  0  0  0
    5.3650    1.9473   21.0521 C   0  0  0  0  0  0
    5.1695    2.0739   19.6753 C   0  0  0  0  0  0
    5.7424    1.1485   18.8038 C   0  0  0  0  0  0
    5.5744    1.3595   17.1104 Cl  0  0  0  0  0  0
    6.4940    0.0845   19.2919 C   0  0  0  0  0  0
    6.6951   -0.0483   20.6668 C   0  0  0  0  0  0
    7.5129   -1.2132   21.2010 C   0  0  0  0  0  0
    6.6235   -2.3109   21.7960 C   0  0  0  0  0  0
    5.7501   -2.8514   21.1094 O   0  0  0  0  0  0
    6.8982   -2.6311   23.0754 N   0  0  0  0  0  0
    6.2201   -3.5280   23.9147 C   0  0  0  0  0  0
    4.8433   -3.7766   23.7997 C   0  0  0  0  0  0
    4.1464   -4.5898   24.6267 N   0  0  0  0  0  0
    4.8298   -5.1827   25.6301 C   0  0  0  0  0  0
    6.2112   -5.0178   25.8692 C   0  0  0  0  0  0
    6.8854   -5.6529   26.9382 C   0  0  0  0  0  0
    8.2548   -5.4721   27.1046 C   0  0  0  0  0  0
    8.9762   -4.6632   26.2393 C   0  0  0  0  0  0
    8.3384   -4.0080   25.1924 C   0  0  0  0  0  0
    6.9371   -4.1666   24.9782 C   0  0  0  0  0  0
    6.1274    0.8835   21.5449 C   0  0  0  0  0  0
    4.6022    2.9023   19.2698 H   0  0  0  0  0  0
    6.9297   -0.6240   18.6004 H   0  0  0  0  0  0
    8.1148   -1.6489   20.4047 H   0  0  0  0  0  0
    8.2227   -0.8324   21.9392 H   0  0  0  0  0  0
    7.7169   -2.2029   23.4791 H   0  0  0  0  0  0
    4.2502   -3.2942   23.0367 H   0  0  0  0  0  0
    4.2505   -5.8226   26.2806 H   0  0  0  0  0  0
    6.3362   -6.3022   27.6062 H   0  0  0  0  0  0
    8.7677   -5.9807   27.9081 H   0  0  0  0  0  0
   10.0426   -4.5501   26.3804 H   0  0  0  0  0  0
    8.9223   -3.3903   24.5265 H   0  0  0  0  0  0
    6.2684    0.7678   22.6121 H   0  0  0  0  0  0
  1  2  3  0  0  0
  2  3  1  0  0  0
  3 23  2  0  0  0
  3  4  1  0  0  0
  4  5  2  0  0  0
  4 24  1  0  0  0
  5  6  1  0  0  0
  5  7  1  0  0  0
  7  8  2  0  0  0
  7 25  1  0  0  0
  8  9  1  0  0  0
  8 23  1  0  0  0
  9 10  1  0  0  0
  9 26  1  0  0  0
  9 27  1  0  0  0
 10 11  2  0  0  0
 10 12  1  0  0  0
 12 13  1  0  0  0
 12 28  1  0  0  0
 13 22  2  0  0  0
 13 14  1  0  0  0
 14 15  2  0  0  0
 14 29  1  0  0  0
 15 16  1  0  0  0
 16 17  2  0  0  0
 16 30  1  0  0  0
 17 22  1  0  0  0
 17 18  1  0  0  0
 18 19  2  0  0  0
 18 31  1  0  0  0
 19 20  1  0  0  0
 19 32  1  0  0  0
 20 21  2  0  0  0
 20 33  1  0  0  0
 21 22  1  0  0  0
 21 34  1  0  0  0
 23 35  1  0  0  0
M  END
> <r_i_docking_score>
-5.20642743711697

$$$$
ligprep_5.maegz:166
                    3D
 Schrodinger Suite 2020-4.
 34 36  0  0  1  0            999 V2000
    8.9000    1.9465   21.1080 O   0  0  0  0  0  0
    8.6095    1.3626   22.1564 C   0  0  0  0  0  0
    7.1491    0.9870   22.4725 C   0  0  0  0  0  0
    6.1796    1.3424   21.3433 C   0  0  0  0  0  0
    5.2363    2.3594   21.5291 C   0  0  0  0  0  0
    4.4021    2.7460   20.4809 C   0  0  0  0  0  0
    4.5073    2.1231   19.2391 C   0  0  0  0  0  0
    5.4295    1.0953   19.0519 C   0  0  0  0  0  0
    5.5695    0.3455   17.5082 Cl  0  0  0  0  0  0
    6.2532    0.6915   20.1032 C   0  0  0  0  0  0
    7.1413   -0.3148   19.9152 F   0  0  0  0  0  0
    9.5254    1.0145   23.0803 N   0  0  0  0  0  0
   10.8964    1.2530   22.9120 C   0  0  0  0  0  0
   11.7345    0.1525   22.7072 C   0  0  0  0  0  0
   13.0520    0.2560   22.4204 N   0  0  0  0  0  0
   13.5700    1.5009   22.3381 C   0  0  0  0  0  0
   12.8562    2.6949   22.5825 C   0  0  0  0  0  0
   13.4626    3.9737   22.5319 C   0  0  0  0  0  0
   12.7127    5.1142   22.7986 C   0  0  0  0  0  0
   11.3618    5.0105   23.1086 C   0  0  0  0  0  0
   10.7374    3.7655   23.1605 C   0  0  0  0  0  0
   11.4682    2.5728   22.8932 C   0  0  0  0  0  0
    6.8575    1.4957   23.3915 H   0  0  0  0  0  0
    7.0762   -0.0840   22.6715 H   0  0  0  0  0  0
    5.1675    2.8797   22.4734 H   0  0  0  0  0  0
    3.7074    3.5625   20.6119 H   0  0  0  0  0  0
    3.8922    2.4575   18.4156 H   0  0  0  0  0  0
    9.2496    0.3754   23.8087 H   0  0  0  0  0  0
   11.3381   -0.8538   22.7113 H   0  0  0  0  0  0
   14.6186    1.5565   22.0875 H   0  0  0  0  0  0
   14.5150    4.0550   22.3022 H   0  0  0  0  0  0
   13.1847    6.0857   22.7681 H   0  0  0  0  0  0
   10.7876    5.9048   23.3015 H   0  0  0  0  0  0
    9.6848    3.7097   23.3916 H   0  0  0  0  0  0
  1  2  2  0  0  0
  2  3  1  0  0  0
  2 12  1  0  0  0
  3  4  1  0  0  0
  3 23  1  0  0  0
  3 24  1  0  0  0
  4 10  2  0  0  0
  4  5  1  0  0  0
  5  6  2  0  0  0
  5 25  1  0  0  0
  6  7  1  0  0  0
  6 26  1  0  0  0
  7  8  2  0  0  0
  7 27  1  0  0  0
  8  9  1  0  0  0
  8 10  1  0  0  0
 10 11  1  0  0  0
 12 13  1  0  0  0
 12 28  1  0  0  0
 13 22  2  0  0  0
 13 14  1  0  0  0
 14 15  2  0  0  0
 14 29  1  0  0  0
 15 16  1  0  0  0
 16 17  2  0  0  0
 16 30  1  0  0  0
 17 22  1  0  0  0
 17 18  1  0  0  0
 18 19  2  0  0  0
 18 31  1  0  0  0
 19 20  1  0  0  0
 19 32  1  0  0  0
 20 21  2  0  0  0
 20 33  1  0  0  0
 21 22  1  0  0  0
 21 34  1  0  0  0
M  END
> <r_i_docking_score>
-6.56138941291786

$$$$
ligprep_5.maegz:167
                    3D
 Schrodinger Suite 2020-4.
 34 36  0  0  1  0            999 V2000
    8.7560    1.1501   21.1077 O   0  0  0  0  0  0
    8.3060    0.3680   21.9480 C   0  0  0  0  0  0
    6.7894    0.2280   22.1491 C   0  0  0  0  0  0
    5.9697    0.9321   21.0682 C   0  0  0  0  0  0
    5.2508    2.0882   21.3906 C   0  0  0  0  0  0
    4.5058    2.7473   20.4163 C   0  0  0  0  0  0
    4.4891    2.2691   19.1080 C   0  0  0  0  0  0
    5.1981    1.1165   18.7779 C   0  0  0  0  0  0
    5.1734    0.6559   17.5082 F   0  0  0  0  0  0
    5.9290    0.4405   19.7542 C   0  0  0  0  0  0
    6.5953   -0.6926   19.4259 F   0  0  0  0  0  0
    9.0766   -0.4001   22.7446 N   0  0  0  0  0  0
   10.4758   -0.4666   22.6725 C   0  0  0  0  0  0
   11.0464   -1.7324   22.5007 C   0  0  0  0  0  0
   12.3686   -1.9504   22.3178 N   0  0  0  0  0  0
   13.1756   -0.8692   22.3061 C   0  0  0  0  0  0
   12.7393    0.4625   22.4611 C   0  0  0  0  0  0
   13.6112    1.5676   22.3391 C   0  0  0  0  0  0
   13.1388    2.8644   22.5235 C   0  0  0  0  0  0
   11.8048    3.0842   22.8376 C   0  0  0  0  0  0
   10.9184    2.0181   22.9412 C   0  0  0  0  0  0
   11.3479    0.6792   22.7062 C   0  0  0  0  0  0
    6.5409    0.6350   23.1311 H   0  0  0  0  0  0
    6.5050   -0.8256   22.1708 H   0  0  0  0  0  0
    5.2714    2.4875   22.3956 H   0  0  0  0  0  0
    3.9727    3.6551   20.6615 H   0  0  0  0  0  0
    3.9485    2.8092   18.3417 H   0  0  0  0  0  0
    8.6152   -1.1203   23.2744 H   0  0  0  0  0  0
   10.4292   -2.6181   22.4469 H   0  0  0  0  0  0
   14.2214   -1.0696   22.1249 H   0  0  0  0  0  0
   14.6548    1.4019   22.1090 H   0  0  0  0  0  0
   13.8170    3.7019   22.4381 H   0  0  0  0  0  0
   11.4473    4.0935   22.9849 H   0  0  0  0  0  0
    9.8817    2.2219   23.1664 H   0  0  0  0  0  0
  1  2  2  0  0  0
  2  3  1  0  0  0
  2 12  1  0  0  0
  3  4  1  0  0  0
  3 23  1  0  0  0
  3 24  1  0  0  0
  4 10  2  0  0  0
  4  5  1  0  0  0
  5  6  2  0  0  0
  5 25  1  0  0  0
  6  7  1  0  0  0
  6 26  1  0  0  0
  7  8  2  0  0  0
  7 27  1  0  0  0
  8  9  1  0  0  0
  8 10  1  0  0  0
 10 11  1  0  0  0
 12 13  1  0  0  0
 12 28  1  0  0  0
 13 22  2  0  0  0
 13 14  1  0  0  0
 14 15  2  0  0  0
 14 29  1  0  0  0
 15 16  1  0  0  0
 16 17  2  0  0  0
 16 30  1  0  0  0
 17 22  1  0  0  0
 17 18  1  0  0  0
 18 19  2  0  0  0
 18 31  1  0  0  0
 19 20  1  0  0  0
 19 32  1  0  0  0
 20 21  2  0  0  0
 20 33  1  0  0  0
 21 22  1  0  0  0
 21 34  1  0  0  0
M  END
> <r_i_docking_score>
-6.81093511478256

$$$$
ligprep_5.maegz:168
                    3D
 Schrodinger Suite 2020-4.
 34 36  0  0  1  0            999 V2000
    8.7963    1.9469   21.1077 O   0  0  0  0  0  0
    8.5625    1.0513   21.9205 C   0  0  0  0  0  0
    7.1400    0.4864   22.0594 C   0  0  0  0  0  0
    6.1674    1.0310   21.0083 C   0  0  0  0  0  0
    5.1756    1.9471   21.3838 C   0  0  0  0  0  0
    4.2794    2.4455   20.4402 C   0  0  0  0  0  0
    3.3013    3.2971   20.8213 F   0  0  0  0  0  0
    4.3863    2.0550   19.1080 C   0  0  0  0  0  0
    5.3728    1.1469   18.7194 C   0  0  0  0  0  0
    6.2588    0.6309   19.6659 C   0  0  0  0  0  0
    7.2081   -0.2522   19.2780 F   0  0  0  0  0  0
    9.5077    0.5252   22.7297 N   0  0  0  0  0  0
   10.8625    0.9090   22.7093 C   0  0  0  0  0  0
   11.8140   -0.0906   22.4799 C   0  0  0  0  0  0
   13.1354    0.1490   22.3099 N   0  0  0  0  0  0
   13.5425    1.4371   22.3591 C   0  0  0  0  0  0
   12.7016    2.5370   22.6476 C   0  0  0  0  0  0
   13.1761    3.8702   22.7077 C   0  0  0  0  0  0
   12.3200    4.9099   23.0537 C   0  0  0  0  0  0
   10.9842    4.6519   23.3339 C   0  0  0  0  0  0
   10.4778    3.3567   23.2450 C   0  0  0  0  0  0
   11.3169    2.2659   22.8729 C   0  0  0  0  0  0
    6.7778    0.7257   23.0612 H   0  0  0  0  0  0
    7.1622   -0.6027   21.9887 H   0  0  0  0  0  0
    5.0819    2.2618   22.4120 H   0  0  0  0  0  0
    3.7132    2.4687   18.3732 H   0  0  0  0  0  0
    5.4521    0.8484   17.6841 H   0  0  0  0  0  0
    9.2830   -0.3258   23.2239 H   0  0  0  0  0  0
   11.5136   -1.1233   22.3631 H   0  0  0  0  0  0
   14.5920    1.6098   22.1742 H   0  0  0  0  0  0
   14.2212    4.0701   22.5155 H   0  0  0  0  0  0
   12.6964    5.9209   23.1151 H   0  0  0  0  0  0
   10.3257    5.4661   23.5996 H   0  0  0  0  0  0
    9.4305    3.1850   23.4466 H   0  0  0  0  0  0
  1  2  2  0  0  0
  2  3  1  0  0  0
  2 12  1  0  0  0
  3  4  1  0  0  0
  3 23  1  0  0  0
  3 24  1  0  0  0
  4 10  2  0  0  0
  4  5  1  0  0  0
  5  6  2  0  0  0
  5 25  1  0  0  0
  6  7  1  0  0  0
  6  8  1  0  0  0
  8  9  2  0  0  0
  8 26  1  0  0  0
  9 10  1  0  0  0
  9 27  1  0  0  0
 10 11  1  0  0  0
 12 13  1  0  0  0
 12 28  1  0  0  0
 13 22  2  0  0  0
 13 14  1  0  0  0
 14 15  2  0  0  0
 14 29  1  0  0  0
 15 16  1  0  0  0
 16 17  2  0  0  0
 16 30  1  0  0  0
 17 22  1  0  0  0
 17 18  1  0  0  0
 18 19  2  0  0  0
 18 31  1  0  0  0
 19 20  1  0  0  0
 19 32  1  0  0  0
 20 21  2  0  0  0
 20 33  1  0  0  0
 21 22  1  0  0  0
 21 34  1  0  0  0
M  END
> <r_i_docking_score>
-6.65266777057987

$$$$
ligprep_5.maegz:169
                    3D
 Schrodinger Suite 2020-4.
 33 35  0  0  1  0            999 V2000
   10.1431   -2.8495   23.9147 O   0  0  0  0  0  0
    9.3878   -1.8839   23.7922 C   0  0  0  0  0  0
    7.8860   -2.0566   24.0859 C   0  0  0  0  0  0
    7.2219   -3.0805   23.1657 C   0  0  0  0  0  0
    6.2311   -2.6906   22.2527 C   0  0  0  0  0  0
    5.6302   -3.5569   21.3962 N   0  0  0  0  0  0
    6.0194   -4.8581   21.4338 C   0  0  0  0  0  0
    6.9812   -5.3352   22.3222 C   0  0  0  0  0  0
    7.4351   -6.9969   22.3080 Cl  0  0  0  0  0  0
    7.5768   -4.4365   23.2075 C   0  0  0  0  0  0
    9.7772   -0.6422   23.4334 N   0  0  0  0  0  0
   11.0654   -0.1767   23.0828 C   0  0  0  0  0  0
   12.1003   -1.0289   22.6591 C   0  0  0  0  0  0
   13.3353   -0.6079   22.3065 N   0  0  0  0  0  0
   13.5693    0.7204   22.3224 C   0  0  0  0  0  0
   12.6275    1.6950   22.7088 C   0  0  0  0  0  0
   12.9248    3.0788   22.7069 C   0  0  0  0  0  0
   11.9627    3.9994   23.1072 C   0  0  0  0  0  0
   10.7020    3.5702   23.5101 C   0  0  0  0  0  0
   10.3794    2.2144   23.5157 C   0  0  0  0  0  0
   11.3313    1.2351   23.1092 C   0  0  0  0  0  0
    7.3582   -1.1019   24.0503 H   0  0  0  0  0  0
    7.8114   -2.4153   25.1142 H   0  0  0  0  0  0
    5.9051   -1.6608   22.1844 H   0  0  0  0  0  0
    5.5696   -5.5313   20.7220 H   0  0  0  0  0  0
    8.3280   -4.7867   23.9016 H   0  0  0  0  0  0
    9.0563    0.0630   23.4230 H   0  0  0  0  0  0
   11.9587   -2.0960   22.5704 H   0  0  0  0  0  0
   14.5524    1.0325   22.0046 H   0  0  0  0  0  0
   13.9054    3.4124   22.3972 H   0  0  0  0  0  0
   12.1934    5.0547   23.1007 H   0  0  0  0  0  0
    9.9625    4.2977   23.8148 H   0  0  0  0  0  0
    9.3927    1.9108   23.8329 H   0  0  0  0  0  0
  1  2  2  0  0  0
  2  3  1  0  0  0
  2 11  1  0  0  0
  3  4  1  0  0  0
  3 22  1  0  0  0
  3 23  1  0  0  0
  4 10  2  0  0  0
  4  5  1  0  0  0
  5  6  2  0  0  0
  5 24  1  0  0  0
  6  7  1  0  0  0
  7  8  2  0  0  0
  7 25  1  0  0  0
  8  9  1  0  0  0
  8 10  1  0  0  0
 10 26  1  0  0  0
 11 12  1  0  0  0
 11 27  1  0  0  0
 12 21  2  0  0  0
 12 13  1  0  0  0
 13 14  2  0  0  0
 13 28  1  0  0  0
 14 15  1  0  0  0
 15 16  2  0  0  0
 15 29  1  0  0  0
 16 21  1  0  0  0
 16 17  1  0  0  0
 17 18  2  0  0  0
 17 30  1  0  0  0
 18 19  1  0  0  0
 18 31  1  0  0  0
 19 20  2  0  0  0
 19 32  1  0  0  0
 20 21  1  0  0  0
 20 33  1  0  0  0
M  END
> <r_i_docking_score>
-6.54103758858054

$$$$
ligprep_5.maegz:170
                    3D
 Schrodinger Suite 2020-4.
 37 39  0  0  1  0            999 V2000
    8.7462    1.1488   20.7339 O   0  0  0  0  0  0
    8.3685    0.1914   21.4125 C   0  0  0  0  0  0
    6.9393   -0.3505   21.2529 C   0  0  0  0  0  0
    6.0251    0.5845   20.4605 C   0  0  0  0  0  0
    5.9835    0.5297   19.0643 C   0  0  0  0  0  0
    5.1706    1.4132   18.3570 C   0  0  0  0  0  0
    4.3851    2.3465   19.0355 C   0  0  0  0  0  0
    4.4161    2.4141   20.4308 C   0  0  0  0  0  0
    3.5495    3.4088   21.2025 C   0  0  0  0  0  0
    2.7585    2.7474   22.0488 F   0  0  0  0  0  0
    4.3219    4.2345   21.9086 F   0  0  0  0  0  0
    2.7654    4.1347   20.4035 F   0  0  0  0  0  0
    5.2623    1.5475   21.1273 C   0  0  0  0  0  0
    9.1661   -0.4750   22.2763 N   0  0  0  0  0  0
   10.5426   -0.2359   22.4544 C   0  0  0  0  0  0
   11.3971   -1.3349   22.3078 C   0  0  0  0  0  0
   12.7475   -1.2503   22.3077 N   0  0  0  0  0  0
   13.2915   -0.0220   22.4458 C   0  0  0  0  0  0
   12.5546    1.1665   22.6387 C   0  0  0  0  0  0
   13.1693    2.4384   22.7081 C   0  0  0  0  0  0
   12.4011    3.5750   22.9415 C   0  0  0  0  0  0
   11.0254    3.4726   23.1072 C   0  0  0  0  0  0
   10.3882    2.2400   22.9877 C   0  0  0  0  0  0
   11.1299    1.0569   22.7064 C   0  0  0  0  0  0
    6.5105   -0.5366   22.2384 H   0  0  0  0  0  0
    6.9968   -1.3107   20.7389 H   0  0  0  0  0  0
    6.5932   -0.1806   18.5232 H   0  0  0  0  0  0
    5.1690    1.3859   17.2771 H   0  0  0  0  0  0
    3.7723    3.0285   18.4616 H   0  0  0  0  0  0
    5.2985    1.6013   22.2061 H   0  0  0  0  0  0
    8.8158   -1.3464   22.6449 H   0  0  0  0  0  0
   11.0023   -2.3234   22.1141 H   0  0  0  0  0  0
   14.3682    0.0271   22.3875 H   0  0  0  0  0  0
   14.2384    2.5195   22.5847 H   0  0  0  0  0  0
   12.8781    4.5426   23.0036 H   0  0  0  0  0  0
   10.4396    4.3614   23.2923 H   0  0  0  0  0  0
    9.3144    2.1916   23.0853 H   0  0  0  0  0  0
  1  2  2  0  0  0
  2  3  1  0  0  0
  2 14  1  0  0  0
  3  4  1  0  0  0
  3 25  1  0  0  0
  3 26  1  0  0  0
  4 13  2  0  0  0
  4  5  1  0  0  0
  5  6  2  0  0  0
  5 27  1  0  0  0
  6  7  1  0  0  0
  6 28  1  0  0  0
  7  8  2  0  0  0
  7 29  1  0  0  0
  8  9  1  0  0  0
  8 13  1  0  0  0
  9 10  1  0  0  0
  9 11  1  0  0  0
  9 12  1  0  0  0
 13 30  1  0  0  0
 14 15  1  0  0  0
 14 31  1  0  0  0
 15 24  2  0  0  0
 15 16  1  0  0  0
 16 17  2  0  0  0
 16 32  1  0  0  0
 17 18  1  0  0  0
 18 19  2  0  0  0
 18 33  1  0  0  0
 19 24  1  0  0  0
 19 20  1  0  0  0
 20 21  2  0  0  0
 20 34  1  0  0  0
 21 22  1  0  0  0
 21 35  1  0  0  0
 22 23  2  0  0  0
 22 36  1  0  0  0
 23 24  1  0  0  0
 23 37  1  0  0  0
M  END
> <r_i_docking_score>
-6.63243481453925

$$$$
ligprep_5.maegz:171
                    3D
 Schrodinger Suite 2020-4.
 37 39  0  0  1  0            999 V2000
    8.7824    1.5470   20.8615 O   0  0  0  0  0  0
    8.5447    0.6350   21.6520 C   0  0  0  0  0  0
    7.1579   -0.0192   21.6489 C   0  0  0  0  0  0
    6.0494    0.9191   21.1704 C   0  0  0  0  0  0
    5.5989    1.9469   22.0063 C   0  0  0  0  0  0
    4.5317    2.7463   21.6140 C   0  0  0  0  0  0
    3.9054    2.5267   20.3830 C   0  0  0  0  0  0
    2.6539    3.3160   20.0089 C   0  0  0  0  0  0
    2.5497    4.4596   20.6872 F   0  0  0  0  0  0
    2.6155    3.5907   18.7070 F   0  0  0  0  0  0
    1.5908    2.5672   20.3078 F   0  0  0  0  0  0
    4.4099    1.5519   19.5142 C   0  0  0  0  0  0
    5.4753    0.7472   19.9093 C   0  0  0  0  0  0
    9.4584    0.1185   22.5022 N   0  0  0  0  0  0
   10.8092    0.5124   22.5649 C   0  0  0  0  0  0
   11.7726   -0.4843   22.3745 C   0  0  0  0  0  0
   13.1041   -0.2481   22.3079 N   0  0  0  0  0  0
   13.5130    1.0337   22.4259 C   0  0  0  0  0  0
   12.6600    2.1318   22.6719 C   0  0  0  0  0  0
   13.1418    3.4600   22.7785 C   0  0  0  0  0  0
   12.2636    4.4988   23.0776 C   0  0  0  0  0  0
   10.9083    4.2440   23.2523 C   0  0  0  0  0  0
   10.4015    2.9546   23.1058 C   0  0  0  0  0  0
   11.2585    1.8635   22.7856 C   0  0  0  0  0  0
    6.9131   -0.3697   22.6516 H   0  0  0  0  0  0
    7.2004   -0.9035   21.0116 H   0  0  0  0  0  0
    6.0515    2.1010   22.9745 H   0  0  0  0  0  0
    4.1742    3.5135   22.2845 H   0  0  0  0  0  0
    3.9615    1.3935   18.5439 H   0  0  0  0  0  0
    5.8302   -0.0241   19.2419 H   0  0  0  0  0  0
    9.2208   -0.7482   22.9578 H   0  0  0  0  0  0
   11.4785   -1.5133   22.2143 H   0  0  0  0  0  0
   14.5741    1.2035   22.3214 H   0  0  0  0  0  0
   14.1978    3.6597   22.6585 H   0  0  0  0  0  0
   12.6365    5.5093   23.1749 H   0  0  0  0  0  0
   10.2343    5.0569   23.4825 H   0  0  0  0  0  0
    9.3413    2.7899   23.2261 H   0  0  0  0  0  0
  1  2  2  0  0  0
  2  3  1  0  0  0
  2 14  1  0  0  0
  3  4  1  0  0  0
  3 25  1  0  0  0
  3 26  1  0  0  0
  4 13  2  0  0  0
  4  5  1  0  0  0
  5  6  2  0  0  0
  5 27  1  0  0  0
  6  7  1  0  0  0
  6 28  1  0  0  0
  7  8  1  0  0  0
  7 12  2  0  0  0
  8  9  1  0  0  0
  8 10  1  0  0  0
  8 11  1  0  0  0
 12 13  1  0  0  0
 12 29  1  0  0  0
 13 30  1  0  0  0
 14 15  1  0  0  0
 14 31  1  0  0  0
 15 24  2  0  0  0
 15 16  1  0  0  0
 16 17  2  0  0  0
 16 32  1  0  0  0
 17 18  1  0  0  0
 18 19  2  0  0  0
 18 33  1  0  0  0
 19 24  1  0  0  0
 19 20  1  0  0  0
 20 21  2  0  0  0
 20 34  1  0  0  0
 21 22  1  0  0  0
 21 35  1  0  0  0
 22 23  2  0  0  0
 22 36  1  0  0  0
 23 24  1  0  0  0
 23 37  1  0  0  0
M  END
> <r_i_docking_score>
-5.94370550462433

$$$$
ligprep_5.maegz:172
                    3D
 Schrodinger Suite 2020-4.
 33 35  0  0  1  0            999 V2000
    9.7371   -1.5535   24.4844 O   0  0  0  0  0  0
    9.9895   -2.0161   23.3712 C   0  0  0  0  0  0
   11.3228   -1.6867   22.6693 C   0  0  0  0  0  0
   11.8206   -0.2331   22.7060 C   0  0  0  0  0  0
   13.1333    0.0454   22.3081 C   0  0  0  0  0  0
   13.5696    1.3717   22.3078 C   0  0  0  0  0  0
   12.6991    2.3871   22.7067 C   0  0  0  0  0  0
   13.2088    4.0368   22.7116 Cl  0  0  0  0  0  0
   11.4039    2.0382   23.0877 C   0  0  0  0  0  0
   10.9580    0.7561   23.0809 N   0  0  0  0  0  0
    9.1699   -2.8529   22.7056 N   0  0  0  0  0  0
    7.9286   -3.3337   23.1490 C   0  0  0  0  0  0
    6.8305   -3.1260   22.3078 C   0  0  0  0  0  0
    5.5735   -3.5447   22.5834 N   0  0  0  0  0  0
    5.3838   -4.2109   23.7442 C   0  0  0  0  0  0
    6.4052   -4.5195   24.6723 C   0  0  0  0  0  0
    6.1553   -5.2462   25.8619 C   0  0  0  0  0  0
    7.2027   -5.5563   26.7234 C   0  0  0  0  0  0
    8.5032   -5.1668   26.4263 C   0  0  0  0  0  0
    8.7775   -4.4431   25.2676 C   0  0  0  0  0  0
    7.7334   -4.0823   24.3646 C   0  0  0  0  0  0
   11.3057   -2.0098   21.6259 H   0  0  0  0  0  0
   12.0844   -2.3136   23.1358 H   0  0  0  0  0  0
   13.7967   -0.7461   21.9911 H   0  0  0  0  0  0
   14.5729    1.6156   21.9848 H   0  0  0  0  0  0
   10.6930    2.7932   23.3887 H   0  0  0  0  0  0
    9.4231   -3.0888   21.7571 H   0  0  0  0  0  0
    6.9455   -2.5869   21.3773 H   0  0  0  0  0  0
    4.3710   -4.5275   23.9450 H   0  0  0  0  0  0
    5.1507   -5.5725   26.0902 H   0  0  0  0  0  0
    7.0095   -6.1243   27.6217 H   0  0  0  0  0  0
    9.3076   -5.4326   27.0988 H   0  0  0  0  0  0
    9.7982   -4.1616   25.0580 H   0  0  0  0  0  0
  1  2  2  0  0  0
  2  3  1  0  0  0
  2 11  1  0  0  0
  3  4  1  0  0  0
  3 22  1  0  0  0
  3 23  1  0  0  0
  4 10  2  0  0  0
  4  5  1  0  0  0
  5  6  2  0  0  0
  5 24  1  0  0  0
  6  7  1  0  0  0
  6 25  1  0  0  0
  7  8  1  0  0  0
  7  9  2  0  0  0
  9 10  1  0  0  0
  9 26  1  0  0  0
 11 12  1  0  0  0
 11 27  1  0  0  0
 12 21  2  0  0  0
 12 13  1  0  0  0
 13 14  2  0  0  0
 13 28  1  0  0  0
 14 15  1  0  0  0
 15 16  2  0  0  0
 15 29  1  0  0  0
 16 21  1  0  0  0
 16 17  1  0  0  0
 17 18  2  0  0  0
 17 30  1  0  0  0
 18 19  1  0  0  0
 18 31  1  0  0  0
 19 20  2  0  0  0
 19 32  1  0  0  0
 20 21  1  0  0  0
 20 33  1  0  0  0
M  END
> <r_i_docking_score>
-6.74581161013066

$$$$
ligprep_5.maegz:173
                    3D
 Schrodinger Suite 2020-4.
 33 35  0  0  1  0            999 V2000
    9.5687    1.8275   21.6375 O   0  0  0  0  0  0
    9.1516    1.4033   22.7193 C   0  0  0  0  0  0
   10.1311    0.9269   23.7975 C   0  0  0  0  0  0
   11.3388    0.2135   23.1971 C   0  0  0  0  0  0
   11.2581   -1.1562   22.9062 C   0  0  0  0  0  0
   12.3521   -1.7855   22.3083 C   0  0  0  0  0  0
   13.5032   -1.1322   22.0112 N   0  0  0  0  0  0
   13.5698    0.1895   22.3079 C   0  0  0  0  0  0
   12.5190    0.9044   22.8771 C   0  0  0  0  0  0
   12.6995    2.6097   23.1080 Cl  0  0  0  0  0  0
    7.8484    1.3507   23.0557 N   0  0  0  0  0  0
    6.7719    1.7480   22.2462 C   0  0  0  0  0  0
    5.8702    2.6644   22.7931 C   0  0  0  0  0  0
    4.8060    3.1670   22.1297 N   0  0  0  0  0  0
    4.6119    2.7473   20.8623 C   0  0  0  0  0  0
    5.4214    1.8046   20.1960 C   0  0  0  0  0  0
    5.1671    1.3968   18.8652 C   0  0  0  0  0  0
    5.9697    0.4315   18.2715 C   0  0  0  0  0  0
    7.0294   -0.1341   18.9669 C   0  0  0  0  0  0
    7.3171    0.2623   20.2682 C   0  0  0  0  0  0
    6.5324    1.2605   20.9140 C   0  0  0  0  0  0
    9.6329    0.2504   24.4956 H   0  0  0  0  0  0
   10.4460    1.7779   24.4020 H   0  0  0  0  0  0
   10.3598   -1.7186   23.1172 H   0  0  0  0  0  0
   12.3093   -2.8340   22.0502 H   0  0  0  0  0  0
   14.4768    0.7025   22.0298 H   0  0  0  0  0  0
    7.6337    1.1836   24.0289 H   0  0  0  0  0  0
    6.0113    3.0484   23.7938 H   0  0  0  0  0  0
    3.7799    3.2000   20.3398 H   0  0  0  0  0  0
    4.3428    1.8309   18.3175 H   0  0  0  0  0  0
    5.7703    0.1185   17.2568 H   0  0  0  0  0  0
    7.6399   -0.8822   18.4798 H   0  0  0  0  0  0
    8.1462   -0.1963   20.7842 H   0  0  0  0  0  0
  1  2  2  0  0  0
  2  3  1  0  0  0
  2 11  1  0  0  0
  3  4  1  0  0  0
  3 22  1  0  0  0
  3 23  1  0  0  0
  4  9  2  0  0  0
  4  5  1  0  0  0
  5  6  2  0  0  0
  5 24  1  0  0  0
  6  7  1  0  0  0
  6 25  1  0  0  0
  7  8  2  0  0  0
  8  9  1  0  0  0
  8 26  1  0  0  0
  9 10  1  0  0  0
 11 12  1  0  0  0
 11 27  1  0  0  0
 12 21  2  0  0  0
 12 13  1  0  0  0
 13 14  2  0  0  0
 13 28  1  0  0  0
 14 15  1  0  0  0
 15 16  2  0  0  0
 15 29  1  0  0  0
 16 21  1  0  0  0
 16 17  1  0  0  0
 17 18  2  0  0  0
 17 30  1  0  0  0
 18 19  1  0  0  0
 18 31  1  0  0  0
 19 20  2  0  0  0
 19 32  1  0  0  0
 20 21  1  0  0  0
 20 33  1  0  0  0
M  END
> <r_i_docking_score>
-6.4739724538622

$$$$
ligprep_5.maegz:174
                    3D
 Schrodinger Suite 2020-4.
 34 36  0  0  1  0            999 V2000
    8.7400    1.0967   21.0812 O   0  0  0  0  0  0
    8.2995    0.2340   21.8451 C   0  0  0  0  0  0
    6.7857   -0.0046   21.9690 C   0  0  0  0  0  0
    5.9696    0.7926   20.9521 C   0  0  0  0  0  0
    5.2956    1.9489   21.3617 C   0  0  0  0  0  0
    4.5673    2.6997   20.4419 C   0  0  0  0  0  0
    4.5094    2.3035   19.1080 C   0  0  0  0  0  0
    5.1720    1.1473   18.6939 C   0  0  0  0  0  0
    5.8957    0.3889   19.6124 C   0  0  0  0  0  0
    6.5221   -0.7370   19.1980 F   0  0  0  0  0  0
    9.0769   -0.5538   22.6177 N   0  0  0  0  0  0
   10.4818   -0.5649   22.6038 C   0  0  0  0  0  0
   11.1002   -1.8089   22.4372 C   0  0  0  0  0  0
   12.4349   -1.9813   22.3035 N   0  0  0  0  0  0
   13.2040   -0.8729   22.3079 C   0  0  0  0  0  0
   12.7226    0.4390   22.5024 C   0  0  0  0  0  0
   13.5694    1.5695   22.4799 C   0  0  0  0  0  0
   13.0484    2.8422   22.7022 C   0  0  0  0  0  0
   11.6967    3.0135   22.9680 C   0  0  0  0  0  0
   10.8387    1.9190   22.9857 C   0  0  0  0  0  0
   11.3176    0.6044   22.7075 C   0  0  0  0  0  0
    6.4820    0.2705   22.9801 H   0  0  0  0  0  0
    6.5633   -1.0651   21.8560 H   0  0  0  0  0  0
    5.3424    2.2771   22.3900 H   0  0  0  0  0  0
    4.0667    3.6070   20.7515 H   0  0  0  0  0  0
    3.9673    2.9041   18.3898 H   0  0  0  0  0  0
    5.1301    0.8425   17.6580 H   0  0  0  0  0  0
    8.6278   -1.3235   23.0870 H   0  0  0  0  0  0
   10.5177   -2.7167   22.3564 H   0  0  0  0  0  0
   14.2602   -1.0391   22.1615 H   0  0  0  0  0  0
   14.6246    1.4459   22.2864 H   0  0  0  0  0  0
   13.7035    3.7013   22.6809 H   0  0  0  0  0  0
   11.3041    4.0044   23.1427 H   0  0  0  0  0  0
    9.7929    2.0838   23.1879 H   0  0  0  0  0  0
  1  2  2  0  0  0
  2  3  1  0  0  0
  2 11  1  0  0  0
  3  4  1  0  0  0
  3 22  1  0  0  0
  3 23  1  0  0  0
  4  9  2  0  0  0
  4  5  1  0  0  0
  5  6  2  0  0  0
  5 24  1  0  0  0
  6  7  1  0  0  0
  6 25  1  0  0  0
  7  8  2  0  0  0
  7 26  1  0  0  0
  8  9  1  0  0  0
  8 27  1  0  0  0
  9 10  1  0  0  0
 11 12  1  0  0  0
 11 28  1  0  0  0
 12 21  2  0  0  0
 12 13  1  0  0  0
 13 14  2  0  0  0
 13 29  1  0  0  0
 14 15  1  0  0  0
 15 16  2  0  0  0
 15 30  1  0  0  0
 16 21  1  0  0  0
 16 17  1  0  0  0
 17 18  2  0  0  0
 17 31  1  0  0  0
 18 19  1  0  0  0
 18 32  1  0  0  0
 19 20  2  0  0  0
 19 33  1  0  0  0
 20 21  1  0  0  0
 20 34  1  0  0  0
M  END
> <r_i_docking_score>
-6.83388215545836

$$$$
ligprep_5.maegz:175
                    3D
 Schrodinger Suite 2020-4.
 37 39  0  0  1  0            999 V2000
    7.8706   -0.3967   19.5536 C   0  0  0  0  0  0
    6.6720    0.5392   19.5712 C   0  0  0  0  0  0
    6.2116    1.0321   18.3545 C   0  0  0  0  0  0
    5.1696    1.9471   18.3191 C   0  0  0  0  0  0
    4.5379    2.3471   19.4883 C   0  0  0  0  0  0
    4.9720    1.8484   20.7079 C   0  0  0  0  0  0
    6.0296    0.9348   20.7646 C   0  0  0  0  0  0
    6.4292    0.3890   22.1328 C   0  0  0  0  0  0
    6.3696   -1.1393   22.1949 C   0  0  0  0  0  0
    5.5696   -1.7701   21.5079 O   0  0  0  0  0  0
    7.2568   -1.7177   23.0105 N   0  0  0  0  0  0
    7.4555   -3.0929   23.1882 C   0  0  0  0  0  0
    7.2194   -4.0385   22.1749 C   0  0  0  0  0  0
    7.4537   -5.3595   22.3035 N   0  0  0  0  0  0
    7.9696   -5.7702   23.4769 C   0  0  0  0  0  0
    8.2581   -4.9365   24.5805 C   0  0  0  0  0  0
    8.8250   -5.4112   25.7855 C   0  0  0  0  0  0
    9.0731   -4.5330   26.8307 C   0  0  0  0  0  0
    8.7696   -3.1838   26.7051 C   0  0  0  0  0  0
    8.2375   -2.6822   25.5289 C   0  0  0  0  0  0
    7.9766   -3.5469   24.4324 C   0  0  0  0  0  0
    8.5994   -0.1013   20.3079 H   0  0  0  0  0  0
    7.5504   -1.4066   19.7857 H   0  0  0  0  0  0
    8.3696   -0.4172   18.5835 H   0  0  0  0  0  0
    6.6943    0.7472   17.4352 H   0  0  0  0  0  0
    4.8739    2.3988   17.3894 H   0  0  0  0  0  0
    3.7407    3.0753   19.4466 H   0  0  0  0  0  0
    4.4710    2.1670   21.6102 H   0  0  0  0  0  0
    7.4250    0.7581   22.3812 H   0  0  0  0  0  0
    5.7584    0.7675   22.9051 H   0  0  0  0  0  0
    7.8250   -1.1116   23.5812 H   0  0  0  0  0  0
    6.8672   -3.7501   21.1965 H   0  0  0  0  0  0
    8.2351   -6.8150   23.5079 H   0  0  0  0  0  0
    9.0713   -6.4529   25.8981 H   0  0  0  0  0  0
    9.5073   -4.9073   27.7445 H   0  0  0  0  0  0
    8.9573   -2.4949   27.5079 H   0  0  0  0  0  0
    8.0234   -1.6264   25.4590 H   0  0  0  0  0  0
  1  2  1  0  0  0
  1 22  1  0  0  0
  1 23  1  0  0  0
  1 24  1  0  0  0
  2  7  2  0  0  0
  2  3  1  0  0  0
  3  4  2  0  0  0
  3 25  1  0  0  0
  4  5  1  0  0  0
  4 26  1  0  0  0
  5  6  2  0  0  0
  5 27  1  0  0  0
  6  7  1  0  0  0
  6 28  1  0  0  0
  7  8  1  0  0  0
  8  9  1  0  0  0
  8 29  1  0  0  0
  8 30  1  0  0  0
  9 10  2  0  0  0
  9 11  1  0  0  0
 11 12  1  0  0  0
 11 31  1  0  0  0
 12 21  2  0  0  0
 12 13  1  0  0  0
 13 14  2  0  0  0
 13 32  1  0  0  0
 14 15  1  0  0  0
 15 16  2  0  0  0
 15 33  1  0  0  0
 16 21  1  0  0  0
 16 17  1  0  0  0
 17 18  2  0  0  0
 17 34  1  0  0  0
 18 19  1  0  0  0
 18 35  1  0  0  0
 19 20  2  0  0  0
 19 36  1  0  0  0
 20 21  1  0  0  0
 20 37  1  0  0  0
M  END
> <r_i_docking_score>
-4.377917809014

$$$$
ligprep_5.maegz:176
                    3D
 Schrodinger Suite 2020-4.
 38 40  0  0  1  0            999 V2000
    5.4710    3.4365   21.9078 C   0  0  0  0  0  0
    5.7788    2.0440   21.9423 O   0  0  0  0  0  0
    5.7922    1.3240   20.7596 C   0  0  0  0  0  0
    5.5129    1.8983   19.5080 C   0  0  0  0  0  0
    5.6062    1.1470   18.3389 C   0  0  0  0  0  0
    5.9696   -0.1952   18.4073 C   0  0  0  0  0  0
    6.1796   -0.7962   19.6416 C   0  0  0  0  0  0
    6.1033   -0.0467   20.8221 C   0  0  0  0  0  0
    6.3380   -0.7524   22.1622 C   0  0  0  0  0  0
    7.7584   -1.3130   22.2869 C   0  0  0  0  0  0
    7.9284   -2.5336   22.3237 O   0  0  0  0  0  0
    8.7308   -0.3811   22.3522 N   0  0  0  0  0  0
   10.1338   -0.5179   22.4107 C   0  0  0  0  0  0
   10.8050   -1.7491   22.3083 C   0  0  0  0  0  0
   12.1521   -1.8836   22.3111 N   0  0  0  0  0  0
   12.8877   -0.7592   22.4269 C   0  0  0  0  0  0
   12.3537    0.5364   22.5605 C   0  0  0  0  0  0
   13.1699    1.6851   22.6697 C   0  0  0  0  0  0
   12.5960    2.9505   22.7306 C   0  0  0  0  0  0
   11.2142    3.0979   22.7132 C   0  0  0  0  0  0
   10.3817    1.9850   22.6313 C   0  0  0  0  0  0
   10.9291    0.6688   22.5431 C   0  0  0  0  0  0
    5.5347    3.8445   22.9163 H   0  0  0  0  0  0
    6.1761    3.9908   21.2853 H   0  0  0  0  0  0
    4.4578    3.6126   21.5409 H   0  0  0  0  0  0
    5.2369    2.9397   19.4106 H   0  0  0  0  0  0
    5.4011    1.6062   17.3829 H   0  0  0  0  0  0
    6.0466   -0.7831   17.5059 H   0  0  0  0  0  0
    6.4056   -1.8511   19.6843 H   0  0  0  0  0  0
    6.1141   -0.1123   23.0173 H   0  0  0  0  0  0
    5.6316   -1.5823   22.2315 H   0  0  0  0  0  0
    8.3990    0.5709   22.3334 H   0  0  0  0  0  0
   10.2826   -2.6851   22.1842 H   0  0  0  0  0  0
   13.9601   -0.8973   22.4210 H   0  0  0  0  0  0
   14.2452    1.5783   22.6740 H   0  0  0  0  0  0
   13.2297    3.8236   22.7970 H   0  0  0  0  0  0
   10.7825    4.0878   22.7611 H   0  0  0  0  0  0
    9.3131    2.1349   22.6148 H   0  0  0  0  0  0
  1  2  1  0  0  0
  1 23  1  0  0  0
  1 24  1  0  0  0
  1 25  1  0  0  0
  2  3  1  0  0  0
  3  8  2  0  0  0
  3  4  1  0  0  0
  4  5  2  0  0  0
  4 26  1  0  0  0
  5  6  1  0  0  0
  5 27  1  0  0  0
  6  7  2  0  0  0
  6 28  1  0  0  0
  7  8  1  0  0  0
  7 29  1  0  0  0
  8  9  1  0  0  0
  9 10  1  0  0  0
  9 30  1  0  0  0
  9 31  1  0  0  0
 10 11  2  0  0  0
 10 12  1  0  0  0
 12 13  1  0  0  0
 12 32  1  0  0  0
 13 22  2  0  0  0
 13 14  1  0  0  0
 14 15  2  0  0  0
 14 33  1  0  0  0
 15 16  1  0  0  0
 16 17  2  0  0  0
 16 34  1  0  0  0
 17 22  1  0  0  0
 17 18  1  0  0  0
 18 19  2  0  0  0
 18 35  1  0  0  0
 19 20  1  0  0  0
 19 36  1  0  0  0
 20 21  2  0  0  0
 20 37  1  0  0  0
 21 22  1  0  0  0
 21 38  1  0  0  0
M  END
> <r_i_docking_score>
-5.9391905148873

$$$$
ligprep_5.maegz:177
                    3D
 Schrodinger Suite 2020-4.
 41 44  0  0  1  0            999 V2000
    9.3630    1.9466   21.1081 O   0  0  0  0  0  0
    9.1097    1.2176   22.0715 C   0  0  0  0  0  0
   10.0589    1.1667   23.3073 C   0  0  1  0  0  0
   10.6691    2.5622   23.5159 C   0  0  0  0  0  0
    9.9380    3.5862   24.1357 C   0  0  0  0  0  0
   10.4739    4.8665   24.2564 C   0  0  0  0  0  0
   11.7357    5.1499   23.7376 C   0  0  0  0  0  0
   12.3702    6.7464   23.9099 Cl  0  0  0  0  0  0
   12.4614    4.1447   23.0880 C   0  0  0  0  0  0
   13.9973    4.4733   22.3714 Cl  0  0  0  0  0  0
   11.9342    2.8562   22.9930 C   0  0  0  0  0  0
    9.4316    0.5542   24.5796 C   0  0  0  0  0  0
    8.7089   -0.7394   24.2293 C   0  0  0  0  0  0
    7.5874   -0.4692   23.2126 C   0  0  0  0  0  0
    8.0386    0.3584   22.0693 N   0  0  0  0  0  0
    7.1346    0.4064   20.9889 C   0  0  0  0  0  0
    7.3378   -0.4531   19.9041 C   0  0  0  0  0  0
    6.5788   -0.4501   18.7852 N   0  0  0  0  0  0
    5.5700    0.4462   18.7216 C   0  0  0  0  0  0
    5.2379    1.3567   19.7499 C   0  0  0  0  0  0
    4.1604    2.2694   19.6435 C   0  0  0  0  0  0
    3.8843    3.1463   20.6892 C   0  0  0  0  0  0
    4.6688    3.1466   21.8371 C   0  0  0  0  0  0
    5.7388    2.2634   21.9666 C   0  0  0  0  0  0
    6.0470    1.3412   20.9275 C   0  0  0  0  0  0
   10.8715    0.5092   22.9924 H   0  0  0  0  0  0
    8.9441    3.4024   24.5159 H   0  0  0  0  0  0
    9.8984    5.6430   24.7388 H   0  0  0  0  0  0
   12.5021    2.0932   22.4814 H   0  0  0  0  0  0
    8.7239    1.2423   25.0456 H   0  0  0  0  0  0
   10.2053    0.3623   25.3258 H   0  0  0  0  0  0
    8.2903   -1.1986   25.1235 H   0  0  0  0  0  0
    9.4094   -1.4702   23.8212 H   0  0  0  0  0  0
    6.7660    0.0647   23.6967 H   0  0  0  0  0  0
    7.1806   -1.4136   22.8433 H   0  0  0  0  0  0
    8.1531   -1.1620   19.9091 H   0  0  0  0  0  0
    4.9844    0.4379   17.8141 H   0  0  0  0  0  0
    3.5682    2.2932   18.7398 H   0  0  0  0  0  0
    3.0757    3.8571   20.5912 H   0  0  0  0  0  0
    4.4531    3.8488   22.6284 H   0  0  0  0  0  0
    6.3424    2.2828   22.8605 H   0  0  0  0  0  0
  1  2  2  0  0  0
  2 15  1  0  0  0
  2  3  1  0  0  0
  3  4  1  0  0  0
  3 12  1  0  0  0
  3 26  1  0  0  0
  4 11  2  0  0  0
  4  5  1  0  0  0
  5  6  2  0  0  0
  5 27  1  0  0  0
  6  7  1  0  0  0
  6 28  1  0  0  0
  7  8  1  0  0  0
  7  9  2  0  0  0
  9 10  1  0  0  0
  9 11  1  0  0  0
 11 29  1  0  0  0
 12 13  1  0  0  0
 12 30  1  0  0  0
 12 31  1  0  0  0
 13 14  1  0  0  0
 13 32  1  0  0  0
 13 33  1  0  0  0
 14 15  1  0  0  0
 14 34  1  0  0  0
 14 35  1  0  0  0
 15 16  1  0  0  0
 16 25  2  0  0  0
 16 17  1  0  0  0
 17 18  2  0  0  0
 17 36  1  0  0  0
 18 19  1  0  0  0
 19 20  2  0  0  0
 19 37  1  0  0  0
 20 25  1  0  0  0
 20 21  1  0  0  0
 21 22  2  0  0  0
 21 38  1  0  0  0
 22 23  1  0  0  0
 22 39  1  0  0  0
 23 24  2  0  0  0
 23 40  1  0  0  0
 24 25  1  0  0  0
 24 41  1  0  0  0
M  END
> <r_i_docking_score>
-6.02781969757777

$$$$
ligprep_5.maegz:178
                    3D
 Schrodinger Suite 2020-4.
 39 42  0  0  1  0            999 V2000
    9.1842    2.3466   21.5824 O   0  0  0  0  0  0
    8.8355    2.0526   22.7270 C   0  0  0  0  0  0
    7.5437    1.8984   23.0877 N   0  0  0  0  0  0
    6.4278    2.0984   22.2558 C   0  0  0  0  0  0
    5.4178    2.9234   22.7598 C   0  0  0  0  0  0
    4.3102    3.2798   22.0701 N   0  0  0  0  0  0
    4.1870    2.8022   20.8129 C   0  0  0  0  0  0
    5.1075    1.9344   20.1890 C   0  0  0  0  0  0
    4.9227    1.4617   18.8706 C   0  0  0  0  0  0
    5.8318    0.5676   18.3141 C   0  0  0  0  0  0
    6.9172    0.1146   19.0535 C   0  0  0  0  0  0
    7.1319    0.5738   20.3499 C   0  0  0  0  0  0
    6.2542    1.5296   20.9425 C   0  0  0  0  0  0
    9.8952    1.7939   23.8302 C   0  0  2  0  0  0
   11.0386    2.8366   23.8292 C   0  0  0  0  0  0
   12.0612    2.5811   22.7067 C   0  0  0  0  0  0
   12.6040    1.2608   22.7739 O   0  0  0  0  0  0
   11.7174    0.2181   22.9953 C   0  0  0  0  0  0
   12.1693   -1.0613   22.6509 C   0  0  0  0  0  0
   13.7081   -1.2955   21.9029 Cl  0  0  0  0  0  0
   11.3785   -2.1743   22.9217 C   0  0  0  0  0  0
   10.1427   -2.0223   23.5439 C   0  0  0  0  0  0
    9.1690   -3.3984   23.9077 Cl  0  0  0  0  0  0
    9.6841   -0.7489   23.8678 C   0  0  0  0  0  0
   10.4517    0.3918   23.5967 C   0  0  0  0  0  0
    7.3469    1.8176   24.0718 H   0  0  0  0  0  0
    5.5001    3.3556   23.7458 H   0  0  0  0  0  0
    3.3159    3.1315   20.2651 H   0  0  0  0  0  0
    4.0639    1.7956   18.3079 H   0  0  0  0  0  0
    5.6890    0.2103   17.3051 H   0  0  0  0  0  0
    7.6057   -0.5928   18.6106 H   0  0  0  0  0  0
    7.9810    0.1993   20.9011 H   0  0  0  0  0  0
    9.3587    1.8374   24.7802 H   0  0  0  0  0  0
   11.5696    2.7739   24.7764 H   0  0  0  0  0  0
   10.6462    3.8516   23.7423 H   0  0  0  0  0  0
   12.8860    3.2891   22.7890 H   0  0  0  0  0  0
   11.6104    2.7518   21.7324 H   0  0  0  0  0  0
   11.7304   -3.1618   22.6609 H   0  0  0  0  0  0
    8.7108   -0.6449   24.3223 H   0  0  0  0  0  0
  1  2  2  0  0  0
  2  3  1  0  0  0
  2 14  1  0  0  0
  3  4  1  0  0  0
  3 26  1  0  0  0
  4 13  2  0  0  0
  4  5  1  0  0  0
  5  6  2  0  0  0
  5 27  1  0  0  0
  6  7  1  0  0  0
  7  8  2  0  0  0
  7 28  1  0  0  0
  8 13  1  0  0  0
  8  9  1  0  0  0
  9 10  2  0  0  0
  9 29  1  0  0  0
 10 11  1  0  0  0
 10 30  1  0  0  0
 11 12  2  0  0  0
 11 31  1  0  0  0
 12 13  1  0  0  0
 12 32  1  0  0  0
 14 25  1  0  0  0
 14 15  1  0  0  0
 14 33  1  0  0  0
 15 16  1  0  0  0
 15 34  1  0  0  0
 15 35  1  0  0  0
 16 17  1  0  0  0
 16 36  1  0  0  0
 16 37  1  0  0  0
 17 18  1  0  0  0
 18 25  2  0  0  0
 18 19  1  0  0  0
 19 20  1  0  0  0
 19 21  2  0  0  0
 21 22  1  0  0  0
 21 38  1  0  0  0
 22 23  1  0  0  0
 22 24  2  0  0  0
 24 25  1  0  0  0
 24 39  1  0  0  0
M  END
> <r_i_docking_score>
-6.4352878266606

$$$$
ligprep_5.maegz:179
                    3D
 Schrodinger Suite 2020-4.
 40 43  0  0  1  0            999 V2000
   10.4247   -2.4613   23.9072 O   0  0  0  0  0  0
    9.5692   -1.6447   24.2510 C   0  0  0  0  0  0
    9.7110   -0.3033   24.1392 N   0  0  0  0  0  0
   10.8003    0.4594   23.6464 C   0  0  0  0  0  0
   11.9721   -0.1030   23.1082 C   0  0  0  0  0  0
   13.0320    0.6094   22.6651 N   0  0  0  0  0  0
   12.9385    1.9526   22.7067 C   0  0  0  0  0  0
   11.8181    2.6627   23.1863 C   0  0  0  0  0  0
   11.7662    4.0774   23.1962 C   0  0  0  0  0  0
   10.6440    4.7304   23.6964 C   0  0  0  0  0  0
    9.5671    4.0030   24.1915 C   0  0  0  0  0  0
    9.5891    2.6089   24.1940 C   0  0  0  0  0  0
   10.7159    1.8956   23.6839 C   0  0  0  0  0  0
    8.2319   -2.1518   24.8574 C   0  0  2  0  0  0
    8.4577   -2.8669   26.2153 C   0  0  0  0  0  0
    9.0761   -4.2744   26.0638 C   0  0  0  0  0  0
    8.2796   -5.0915   25.1471 N   0  0  0  0  0  0
    7.6572   -4.5052   24.0244 C   0  0  0  0  0  0
    7.1742   -5.3626   23.0354 C   0  0  0  0  0  0
    6.5374   -4.8545   21.9080 C   0  0  0  0  0  0
    5.9697   -5.9575   20.7082 Cl  0  0  0  0  0  0
    6.3802   -3.4760   21.7586 C   0  0  0  0  0  0
    5.5697   -2.8218   20.3788 Cl  0  0  0  0  0  0
    6.9061   -2.6151   22.7204 C   0  0  0  0  0  0
    7.5568   -3.1041   23.8641 C   0  0  0  0  0  0
    8.9357    0.2496   24.4662 H   0  0  0  0  0  0
   12.1182   -1.1659   23.0187 H   0  0  0  0  0  0
   13.7978    2.4974   22.3410 H   0  0  0  0  0  0
   12.6020    4.6459   22.8154 H   0  0  0  0  0  0
   10.6041    5.8105   23.6967 H   0  0  0  0  0  0
    8.7023    4.5255   24.5747 H   0  0  0  0  0  0
    8.7390    2.0747   24.5859 H   0  0  0  0  0  0
    7.6159   -1.2685   25.0199 H   0  0  0  0  0  0
    7.4978   -2.9747   26.7274 H   0  0  0  0  0  0
    9.0839   -2.2678   26.8783 H   0  0  0  0  0  0
    9.1876   -4.7861   27.0206 H   0  0  0  0  0  0
   10.0671   -4.2177   25.6124 H   0  0  0  0  0  0
    8.5624   -6.0605   25.1057 H   0  0  0  0  0  0
    7.2842   -6.4301   23.1356 H   0  0  0  0  0  0
    6.8134   -1.5484   22.5708 H   0  0  0  0  0  0
  1  2  2  0  0  0
  2  3  1  0  0  0
  2 14  1  0  0  0
  3  4  1  0  0  0
  3 26  1  0  0  0
  4 13  2  0  0  0
  4  5  1  0  0  0
  5  6  2  0  0  0
  5 27  1  0  0  0
  6  7  1  0  0  0
  7  8  2  0  0  0
  7 28  1  0  0  0
  8 13  1  0  0  0
  8  9  1  0  0  0
  9 10  2  0  0  0
  9 29  1  0  0  0
 10 11  1  0  0  0
 10 30  1  0  0  0
 11 12  2  0  0  0
 11 31  1  0  0  0
 12 13  1  0  0  0
 12 32  1  0  0  0
 14 25  1  0  0  0
 14 15  1  0  0  0
 14 33  1  0  0  0
 15 16  1  0  0  0
 15 34  1  0  0  0
 15 35  1  0  0  0
 16 17  1  0  0  0
 16 36  1  0  0  0
 16 37  1  0  0  0
 17 18  1  0  0  0
 17 38  1  0  0  0
 18 25  2  0  0  0
 18 19  1  0  0  0
 19 20  2  0  0  0
 19 39  1  0  0  0
 20 21  1  0  0  0
 20 22  1  0  0  0
 22 23  1  0  0  0
 22 24  2  0  0  0
 24 25  1  0  0  0
 24 40  1  0  0  0
M  END
> <r_i_docking_score>
-5.86690709704389

$$$$
ligprep_5.maegz:180
                    3D
 Schrodinger Suite 2020-4.
 39 42  0  0  1  0            999 V2000
    9.9464   -0.9434   24.7848 O   0  0  0  0  0  0
    9.7826   -1.4630   23.6810 C   0  0  0  0  0  0
    8.8164   -2.3614   23.3898 N   0  0  0  0  0  0
    7.7875   -2.8780   24.2112 C   0  0  0  0  0  0
    7.4915   -2.3897   25.4978 C   0  0  0  0  0  0
    6.5046   -2.8688   26.2883 N   0  0  0  0  0  0
    5.7549   -3.8768   25.8023 C   0  0  0  0  0  0
    5.9249   -4.4606   24.5299 C   0  0  0  0  0  0
    5.1008   -5.5122   24.0614 C   0  0  0  0  0  0
    5.3157   -6.0523   22.8000 C   0  0  0  0  0  0
    6.3417   -5.5829   21.9889 C   0  0  0  0  0  0
    7.1682   -4.5504   22.4225 C   0  0  0  0  0  0
    6.9798   -3.9543   23.7056 C   0  0  0  0  0  0
   10.7644   -1.1366   22.5297 C   0  0  2  0  0  0
   11.9102   -2.1719   22.5828 C   0  0  0  0  0  0
   13.1373   -1.7085   21.7927 C   0  0  0  0  0  0
   13.6177   -0.4628   22.3077 O   0  0  0  0  0  0
   12.6800    0.5392   22.4711 C   0  0  0  0  0  0
   13.1897    1.8345   22.5069 C   0  0  0  0  0  0
   12.3481    2.9263   22.7078 C   0  0  0  0  0  0
   13.0347    4.5138   22.7603 Cl  0  0  0  0  0  0
   10.9748    2.7136   22.8582 C   0  0  0  0  0  0
    9.8760    4.0235   23.1087 Cl  0  0  0  0  0  0
   10.4672    1.4143   22.8047 C   0  0  0  0  0  0
   11.3056    0.2977   22.6499 C   0  0  0  0  0  0
    8.8421   -2.7432   22.4575 H   0  0  0  0  0  0
    8.0301   -1.5721   25.9494 H   0  0  0  0  0  0
    4.9705   -4.2339   26.4556 H   0  0  0  0  0  0
    4.3024   -5.8858   24.6865 H   0  0  0  0  0  0
    4.6819   -6.8524   22.4517 H   0  0  0  0  0  0
    6.5017   -6.0281   21.0165 H   0  0  0  0  0  0
    7.9611   -4.2094   21.7731 H   0  0  0  0  0  0
   10.2184   -1.2449   21.5901 H   0  0  0  0  0  0
   11.5699   -3.1235   22.1810 H   0  0  0  0  0  0
   12.2306   -2.3713   23.6039 H   0  0  0  0  0  0
   12.8940   -1.6524   20.7280 H   0  0  0  0  0  0
   13.9291   -2.4521   21.8852 H   0  0  0  0  0  0
   14.2527    1.9923   22.3801 H   0  0  0  0  0  0
    9.4021    1.2728   22.9136 H   0  0  0  0  0  0
  1  2  2  0  0  0
  2  3  1  0  0  0
  2 14  1  0  0  0
  3  4  1  0  0  0
  3 26  1  0  0  0
  4 13  2  0  0  0
  4  5  1  0  0  0
  5  6  2  0  0  0
  5 27  1  0  0  0
  6  7  1  0  0  0
  7  8  2  0  0  0
  7 28  1  0  0  0
  8 13  1  0  0  0
  8  9  1  0  0  0
  9 10  2  0  0  0
  9 29  1  0  0  0
 10 11  1  0  0  0
 10 30  1  0  0  0
 11 12  2  0  0  0
 11 31  1  0  0  0
 12 13  1  0  0  0
 12 32  1  0  0  0
 14 25  1  0  0  0
 14 15  1  0  0  0
 14 33  1  0  0  0
 15 16  1  0  0  0
 15 34  1  0  0  0
 15 35  1  0  0  0
 16 17  1  0  0  0
 16 36  1  0  0  0
 16 37  1  0  0  0
 17 18  1  0  0  0
 18 25  2  0  0  0
 18 19  1  0  0  0
 19 20  2  0  0  0
 19 38  1  0  0  0
 20 21  1  0  0  0
 20 22  1  0  0  0
 22 23  1  0  0  0
 22 24  2  0  0  0
 24 25  1  0  0  0
 24 39  1  0  0  0
M  END
> <r_i_docking_score>
-6.65238667180073

$$$$
ligprep_5.maegz:181
                    3D
 Schrodinger Suite 2020-4.
 39 42  0  0  1  0            999 V2000
    8.8291    2.0604   21.7776 O   0  0  0  0  0  0
    8.4177    1.6385   22.8648 C   0  0  0  0  0  0
    7.1148    1.4668   23.1635 N   0  0  0  0  0  0
    6.0551    1.8303   22.3286 C   0  0  0  0  0  0
    5.0861    2.6814   22.8711 C   0  0  0  0  0  0
    4.0422    3.1831   22.1736 N   0  0  0  0  0  0
    3.9492    2.8369   20.8723 C   0  0  0  0  0  0
    4.8396    1.9633   20.2083 C   0  0  0  0  0  0
    4.6938    1.6351   18.8489 C   0  0  0  0  0  0
    5.5711    0.7474   18.2364 C   0  0  0  0  0  0
    6.5941    0.1537   18.9664 C   0  0  0  0  0  0
    6.7723    0.4661   20.3104 C   0  0  0  0  0  0
    5.9175    1.4071   20.9619 C   0  0  0  0  0  0
    9.4128    1.2994   23.9944 C   0  0  2  0  0  0
   10.0360    2.5969   24.5467 C   0  0  0  0  0  0
   11.1498    3.1356   23.6302 C   0  0  0  0  0  0
   12.1824    2.1592   23.5078 O   0  0  0  0  0  0
   11.7837    0.8721   23.1813 C   0  0  0  0  0  0
   10.4917    0.3726   23.4414 C   0  0  0  0  0  0
   10.2080   -0.9545   23.0931 C   0  0  0  0  0  0
   11.1731   -1.7588   22.4981 C   0  0  0  0  0  0
   12.4437   -1.2517   22.2363 C   0  0  0  0  0  0
   13.5724   -2.2777   21.4352 Cl  0  0  0  0  0  0
   12.7599    0.0665   22.5945 C   0  0  0  0  0  0
   14.3318    0.7336   22.3048 Cl  0  0  0  0  0  0
    6.8826    1.2715   24.1239 H   0  0  0  0  0  0
    5.1528    3.0186   23.8942 H   0  0  0  0  0  0
    3.1353    3.2817   20.3186 H   0  0  0  0  0  0
    3.8807    2.0909   18.3080 H   0  0  0  0  0  0
    5.4487    0.5072   17.1906 H   0  0  0  0  0  0
    7.2575   -0.5478   18.4819 H   0  0  0  0  0  0
    7.5740   -0.0077   20.8581 H   0  0  0  0  0  0
    8.8389    0.8110   24.7843 H   0  0  0  0  0  0
   10.4769    2.3581   25.5080 H   0  0  0  0  0  0
    9.2862    3.3719   24.7180 H   0  0  0  0  0  0
   11.5800    4.0437   24.0514 H   0  0  0  0  0  0
   10.7677    3.3941   22.6424 H   0  0  0  0  0  0
    9.2206   -1.3581   23.2610 H   0  0  0  0  0  0
   10.9283   -2.7708   22.2089 H   0  0  0  0  0  0
  1  2  2  0  0  0
  2  3  1  0  0  0
  2 14  1  0  0  0
  3  4  1  0  0  0
  3 26  1  0  0  0
  4 13  2  0  0  0
  4  5  1  0  0  0
  5  6  2  0  0  0
  5 27  1  0  0  0
  6  7  1  0  0  0
  7  8  2  0  0  0
  7 28  1  0  0  0
  8 13  1  0  0  0
  8  9  1  0  0  0
  9 10  2  0  0  0
  9 29  1  0  0  0
 10 11  1  0  0  0
 10 30  1  0  0  0
 11 12  2  0  0  0
 11 31  1  0  0  0
 12 13  1  0  0  0
 12 32  1  0  0  0
 14 19  1  0  0  0
 14 15  1  0  0  0
 14 33  1  0  0  0
 15 16  1  0  0  0
 15 34  1  0  0  0
 15 35  1  0  0  0
 16 17  1  0  0  0
 16 36  1  0  0  0
 16 37  1  0  0  0
 17 18  1  0  0  0
 18 24  2  0  0  0
 18 19  1  0  0  0
 19 20  2  0  0  0
 20 21  1  0  0  0
 20 38  1  0  0  0
 21 22  2  0  0  0
 21 39  1  0  0  0
 22 23  1  0  0  0
 22 24  1  0  0  0
 24 25  1  0  0  0
M  END
> <r_i_docking_score>
-6.20168745550413

$$$$
ligprep_5.maegz:182
                    3D
 Schrodinger Suite 2020-4.
 54 57  0  0  1  0            999 V2000
    9.5630   -5.4541   25.6899 C   0  0  0  0  0  0
    8.6579   -4.5218   26.3626 N   0  0  0  0  0  0
    7.6701   -5.1307   27.2576 C   0  0  0  0  0  0
    8.4155   -3.2425   25.7908 C   0  0  0  0  0  0
    7.4210   -2.3874   26.2925 C   0  0  0  0  0  0
    7.2188   -1.1240   25.7385 C   0  0  0  0  0  0
    8.0241   -0.7144   24.6727 C   0  0  0  0  0  0
    7.7743    0.5408   24.0820 N   0  0  0  0  0  0
    6.4737    0.7127   23.4065 C   0  0  0  0  0  0
    6.3692    0.0345   22.0456 C   0  0  0  0  0  0
    6.3747   -1.3612   21.9430 C   0  0  0  0  0  0
    6.1829   -1.9743   20.7079 C   0  0  0  0  0  0
    5.9700   -1.1991   19.5691 C   0  0  0  0  0  0
    5.9347    0.1894   19.6686 C   0  0  0  0  0  0
    5.5716    1.1367   18.2738 Cl  0  0  0  0  0  0
    6.1496    0.8076   20.9001 C   0  0  0  0  0  0
    8.7367    1.4928   23.9127 C   0  0  0  0  0  0
    8.5709    2.4593   23.1642 O   0  0  0  0  0  0
   10.0422    1.4485   24.7360 C   0  0  0  0  0  0
   11.2851    1.6085   23.8573 C   0  0  0  0  0  0
   11.9629    0.4749   23.3971 C   0  0  0  0  0  0
   13.0892    0.5180   22.6473 N   0  0  0  0  0  0
   13.5688    1.7380   22.3205 C   0  0  0  0  0  0
   12.9813    2.9636   22.7080 C   0  0  0  0  0  0
   13.5616    4.2188   22.4046 C   0  0  0  0  0  0
   12.9389    5.3933   22.8038 C   0  0  0  0  0  0
   11.7426    5.3530   23.5086 C   0  0  0  0  0  0
   11.1648    4.1356   23.8534 C   0  0  0  0  0  0
   11.7782    2.9035   23.4804 C   0  0  0  0  0  0
    8.9939   -1.5209   24.1560 N   0  0  0  0  0  0
    9.1694   -2.7478   24.7099 C   0  0  0  0  0  0
   10.5556   -5.0185   25.5489 H   0  0  0  0  0  0
    9.6768   -6.3820   26.2495 H   0  0  0  0  0  0
    9.1669   -5.7149   24.7076 H   0  0  0  0  0  0
    6.7564   -5.3628   26.7081 H   0  0  0  0  0  0
    8.0419   -6.0546   27.7052 H   0  0  0  0  0  0
    7.4023   -4.4630   28.0745 H   0  0  0  0  0  0
    6.7824   -2.6837   27.1067 H   0  0  0  0  0  0
    6.4448   -0.4820   26.1319 H   0  0  0  0  0  0
    6.2425    1.7721   23.2780 H   0  0  0  0  0  0
    5.6709    0.3278   24.0363 H   0  0  0  0  0  0
    6.5127   -1.9768   22.8173 H   0  0  0  0  0  0
    6.1973   -3.0510   20.6355 H   0  0  0  0  0  0
    5.8086   -1.6773   18.6126 H   0  0  0  0  0  0
    6.1099    1.8850   20.9677 H   0  0  0  0  0  0
   10.0010    2.2376   25.4888 H   0  0  0  0  0  0
   10.1410    0.5374   25.3255 H   0  0  0  0  0  0
   11.6071   -0.5159   23.6402 H   0  0  0  0  0  0
   14.4880    1.7519   21.7551 H   0  0  0  0  0  0
   14.5175    4.2562   21.9081 H   0  0  0  0  0  0
   13.4013    6.3443   22.5812 H   0  0  0  0  0  0
   11.2635    6.2752   23.8087 H   0  0  0  0  0  0
   10.2419    4.1344   24.4115 H   0  0  0  0  0  0
    9.9570   -3.3295   24.2574 H   0  0  0  0  0  0
  1  2  1  0  0  0
  1 32  1  0  0  0
  1 33  1  0  0  0
  1 34  1  0  0  0
  2  3  1  0  0  0
  2  4  1  0  0  0
  3 35  1  0  0  0
  3 36  1  0  0  0
  3 37  1  0  0  0
  4 31  2  0  0  0
  4  5  1  0  0  0
  5  6  2  0  0  0
  5 38  1  0  0  0
  6  7  1  0  0  0
  6 39  1  0  0  0
  7  8  1  0  0  0
  7 30  2  0  0  0
  8  9  1  0  0  0
  8 17  1  0  0  0
  9 10  1  0  0  0
  9 40  1  0  0  0
  9 41  1  0  0  0
 10 16  2  0  0  0
 10 11  1  0  0  0
 11 12  2  0  0  0
 11 42  1  0  0  0
 12 13  1  0  0  0
 12 43  1  0  0  0
 13 14  2  0  0  0
 13 44  1  0  0  0
 14 15  1  0  0  0
 14 16  1  0  0  0
 16 45  1  0  0  0
 17 18  2  0  0  0
 17 19  1  0  0  0
 19 20  1  0  0  0
 19 46  1  0  0  0
 19 47  1  0  0  0
 20 29  2  0  0  0
 20 21  1  0  0  0
 21 22  2  0  0  0
 21 48  1  0  0  0
 22 23  1  0  0  0
 23 24  2  0  0  0
 23 49  1  0  0  0
 24 29  1  0  0  0
 24 25  1  0  0  0
 25 26  2  0  0  0
 25 50  1  0  0  0
 26 27  1  0  0  0
 26 51  1  0  0  0
 27 28  2  0  0  0
 27 52  1  0  0  0
 28 29  1  0  0  0
 28 53  1  0  0  0
 30 31  1  0  0  0
 31 54  1  0  0  0
M  END
> <r_i_docking_score>
-6.28240245633918

$$$$
ligprep_5.maegz:183
                    3D
 Schrodinger Suite 2020-4.
 75 79  0  0  1  0            999 V2000
    4.4969    1.7169   28.2022 C   0  0  0  0  0  0
    6.0117    1.7150   27.8701 C   0  0  0  0  0  0
    6.5094    3.1736   27.7551 C   0  0  0  0  0  0
    6.7201    1.0492   29.0751 C   0  0  0  0  0  0
    6.2734    0.9861   26.5271 C   0  0  0  0  0  0
    5.5269    1.3568   25.4023 C   0  0  0  0  0  0
    5.7210    0.7314   24.1792 C   0  0  0  0  0  0
    6.6818   -0.2719   24.0445 C   0  0  0  0  0  0
    6.8484   -0.9256   22.7986 N   0  0  0  0  0  0
    6.1949   -2.0985   22.4651 C   0  0  0  0  0  0
    6.3165   -2.6018   21.3425 O   0  0  0  0  0  0
    5.3273   -2.8241   23.4063 C   0  0  0  0  0  0
    4.7911   -4.0952   23.1286 C   0  0  0  0  0  0
    4.0030   -4.4455   24.2011 C   0  0  0  0  0  0
    3.1460   -5.6501   24.5622 C   0  0  0  0  0  0
    1.8125   -5.2557   24.8479 O   0  0  0  0  0  0
    3.2429   -6.8494   23.5918 C   0  0  0  0  0  0
    3.6277   -7.7593   24.7070 O   0  0  0  0  0  0
    3.7722   -6.5860   25.6157 C   0  0  0  0  0  0
    4.0770   -3.4388   25.1044 O   0  0  0  0  0  0
    4.8937   -2.4294   24.5901 N   0  0  0  0  0  0
    7.7102   -0.2704   21.7539 C   0  0  1  0  0  0
    7.1361    1.0686   21.1952 C   0  0  0  0  0  0
    7.8437    2.0706   21.1080 O   0  0  0  0  0  0
    5.8328    1.0592   20.8714 N   0  0  0  0  0  0
    5.0208    2.2408   20.5802 C   0  0  0  0  0  0
    3.8777    1.9259   19.5980 C   0  0  0  0  0  0
    2.6292    2.7732   19.8079 C   0  0  0  0  0  0
    2.4253    3.9464   19.0751 C   0  0  0  0  0  0
    1.2685    4.7047   19.2607 C   0  0  0  0  0  0
    0.3023    4.2871   20.1777 C   0  0  0  0  0  0
    0.4940    3.1112   20.9023 C   0  0  0  0  0  0
   -0.4426    2.6989   21.7854 F   0  0  0  0  0  0
    1.6515    2.3572   20.7177 C   0  0  0  0  0  0
    9.1570   -0.2312   22.2312 C   0  0  0  0  0  0
   10.0192   -1.2864   21.9082 C   0  0  0  0  0  0
   11.3548   -1.2514   22.3148 C   0  0  0  0  0  0
   11.7964   -0.1526   23.0536 C   0  0  0  0  0  0
   10.9841    0.8743   23.4038 N   0  0  0  0  0  0
    9.6901    0.8206   22.9969 C   0  0  0  0  0  0
    7.4511   -0.6448   25.1511 C   0  0  0  0  0  0
    7.2484   -0.0177   26.3822 C   0  0  0  0  0  0
    4.0942    0.7023   28.2184 H   0  0  0  0  0  0
    4.2986    2.1598   29.1801 H   0  0  0  0  0  0
    3.9090    2.2883   27.4841 H   0  0  0  0  0  0
    7.5677    3.2116   27.4939 H   0  0  0  0  0  0
    5.9728    3.7264   26.9835 H   0  0  0  0  0  0
    6.3777    3.7199   28.6907 H   0  0  0  0  0  0
    7.8053    1.0318   28.9667 H   0  0  0  0  0  0
    6.5104    1.5761   30.0080 H   0  0  0  0  0  0
    6.3695    0.0254   29.2074 H   0  0  0  0  0  0
    4.7824    2.1373   25.4626 H   0  0  0  0  0  0
    5.1115    1.0332   23.3450 H   0  0  0  0  0  0
    4.9678   -4.6853   22.2436 H   0  0  0  0  0  0
    1.3118   -6.0342   25.1067 H   0  0  0  0  0  0
    4.0582   -6.8345   22.8657 H   0  0  0  0  0  0
    2.3035   -7.1916   23.1525 H   0  0  0  0  0  0
    3.1861   -6.7521   26.5231 H   0  0  0  0  0  0
    4.8349   -6.4392   25.8269 H   0  0  0  0  0  0
    7.7261   -0.8645   20.8390 H   0  0  0  0  0  0
    5.3201    0.1984   20.9983 H   0  0  0  0  0  0
    4.5781    2.4949   21.5454 H   0  0  0  0  0  0
    5.5686    3.1407   20.2877 H   0  0  0  0  0  0
    4.2324    1.9922   18.5673 H   0  0  0  0  0  0
    3.5744    0.8836   19.7140 H   0  0  0  0  0  0
    3.1693    4.2821   18.3629 H   0  0  0  0  0  0
    1.1283    5.6140   18.6937 H   0  0  0  0  0  0
   -0.5958    4.8697   20.3237 H   0  0  0  0  0  0
    1.7891    1.4541   21.2878 H   0  0  0  0  0  0
    9.6672   -2.1261   21.3277 H   0  0  0  0  0  0
   12.0259   -2.0567   22.0545 H   0  0  0  0  0  0
   12.8252   -0.0728   23.3715 H   0  0  0  0  0  0
    9.0760    1.6568   23.2974 H   0  0  0  0  0  0
    8.2021   -1.4164   25.0603 H   0  0  0  0  0  0
    7.8670   -0.3271   27.2102 H   0  0  0  0  0  0
  1  2  1  0  0  0
  1 43  1  0  0  0
  1 44  1  0  0  0
  1 45  1  0  0  0
  2  3  1  0  0  0
  2  4  1  0  0  0
  2  5  1  0  0  0
  3 46  1  0  0  0
  3 47  1  0  0  0
  3 48  1  0  0  0
  4 49  1  0  0  0
  4 50  1  0  0  0
  4 51  1  0  0  0
  5 42  2  0  0  0
  5  6  1  0  0  0
  6  7  2  0  0  0
  6 52  1  0  0  0
  7  8  1  0  0  0
  7 53  1  0  0  0
  8  9  1  0  0  0
  8 41  2  0  0  0
  9 10  1  0  0  0
  9 22  1  0  0  0
 10 11  2  0  0  0
 10 12  1  0  0  0
 12 21  2  0  0  0
 12 13  1  0  0  0
 13 14  2  0  0  0
 13 54  1  0  0  0
 14 15  1  0  0  0
 14 20  1  0  0  0
 15 19  1  0  0  0
 15 16  1  0  0  0
 15 17  1  0  0  0
 16 55  1  0  0  0
 17 18  1  0  0  0
 17 56  1  0  0  0
 17 57  1  0  0  0
 18 19  1  0  0  0
 19 58  1  0  0  0
 19 59  1  0  0  0
 20 21  1  0  0  0
 22 23  1  0  0  0
 22 35  1  0  0  0
 22 60  1  0  0  0
 23 24  2  0  0  0
 23 25  1  0  0  0
 25 26  1  0  0  0
 25 61  1  0  0  0
 26 27  1  0  0  0
 26 62  1  0  0  0
 26 63  1  0  0  0
 27 28  1  0  0  0
 27 64  1  0  0  0
 27 65  1  0  0  0
 28 34  2  0  0  0
 28 29  1  0  0  0
 29 30  2  0  0  0
 29 66  1  0  0  0
 30 31  1  0  0  0
 30 67  1  0  0  0
 31 32  2  0  0  0
 31 68  1  0  0  0
 32 33  1  0  0  0
 32 34  1  0  0  0
 34 69  1  0  0  0
 35 40  2  0  0  0
 35 36  1  0  0  0
 36 37  2  0  0  0
 36 70  1  0  0  0
 37 38  1  0  0  0
 37 71  1  0  0  0
 38 39  2  0  0  0
 38 72  1  0  0  0
 39 40  1  0  0  0
 40 73  1  0  0  0
 41 42  1  0  0  0
 41 74  1  0  0  0
 42 75  1  0  0  0
M  END
> <r_i_docking_score>
-3.05017233066667

$$$$
ligprep_5.maegz:184
                    3D
 Schrodinger Suite 2020-4.
 67 70  0  0  1  0            999 V2000
    2.7171    5.1871   21.7484 C   0  0  0  0  0  0
    2.4334    3.6867   21.9915 C   0  0  0  0  0  0
    1.3693    3.5908   23.1162 C   0  0  0  0  0  0
    1.8075    3.0695   20.7139 C   0  0  0  0  0  0
    3.7586    2.9603   22.3350 C   0  0  0  0  0  0
    4.7669    2.8571   21.3702 C   0  0  0  0  0  0
    5.9611    2.1965   21.6447 C   0  0  0  0  0  0
    6.2182    1.6280   22.9105 C   0  0  0  0  0  0
    7.4563    0.9265   23.2108 N   0  0  0  0  0  0
    8.5874    1.1246   22.4479 C   0  0  0  0  0  0
    8.8478    2.1926   21.8883 O   0  0  0  0  0  0
    9.5549    0.0461   22.3811 C   0  0  0  0  0  0
    9.3240   -1.2606   22.1475 C   0  0  0  0  0  0
   10.4214   -2.0531   22.1050 N   0  0  0  0  0  0
   11.6452   -1.4540   22.3093 C   0  0  0  0  0  0
   12.7582   -1.9729   22.3061 O   0  0  0  0  0  0
   11.2967    0.2980   22.6001 S   0  0  0  0  0  0
    7.7049    0.2876   24.5606 C   0  0  1  0  0  0
    7.5653    1.2611   25.7677 C   0  0  0  0  0  0
    7.0052    0.9006   26.8031 O   0  0  0  0  0  0
    7.9917    2.5185   25.5608 N   0  0  0  0  0  0
    7.7949    3.6203   26.4963 C   0  0  0  0  0  0
    6.7758    4.6649   26.0047 C   0  0  0  0  0  0
    7.1363    5.2946   24.6656 C   0  0  0  0  0  0
    6.2480    5.2207   23.5903 C   0  0  0  0  0  0
    6.6000    5.7413   22.3464 C   0  0  0  0  0  0
    7.8381    6.3540   22.1804 C   0  0  0  0  0  0
    8.7182    6.4615   23.2559 C   0  0  0  0  0  0
    9.9134    7.0731   23.1069 F   0  0  0  0  0  0
    8.3657    5.9392   24.4972 C   0  0  0  0  0  0
    7.0541   -1.0838   24.7227 C   0  0  0  0  0  0
    7.4926   -1.9426   25.7452 C   0  0  0  0  0  0
    6.9530   -3.2240   25.8729 C   0  0  0  0  0  0
    5.9708   -3.6241   24.9661 C   0  0  0  0  0  0
    5.5236   -2.8235   23.9653 N   0  0  0  0  0  0
    6.0665   -1.5829   23.8543 C   0  0  0  0  0  0
    5.1742    1.7002   23.8544 C   0  0  0  0  0  0
    3.9875    2.3746   23.5875 C   0  0  0  0  0  0
    1.8107    5.7295   21.4818 H   0  0  0  0  0  0
    3.4262    5.3381   20.9353 H   0  0  0  0  0  0
    3.1312    5.6666   22.6350 H   0  0  0  0  0  0
    1.1027    2.5569   23.3355 H   0  0  0  0  0  0
    1.7155    4.0498   24.0432 H   0  0  0  0  0  0
    0.4471    4.1065   22.8426 H   0  0  0  0  0  0
    1.6517    1.9952   20.8293 H   0  0  0  0  0  0
    0.8403    3.5165   20.4790 H   0  0  0  0  0  0
    2.4351    3.2120   19.8309 H   0  0  0  0  0  0
    4.6367    3.2969   20.3918 H   0  0  0  0  0  0
    6.6743    2.1458   20.8378 H   0  0  0  0  0  0
    8.3697   -1.7381   21.9673 H   0  0  0  0  0  0
   10.3760   -3.0427   21.8977 H   0  0  0  0  0  0
    8.7703    0.0785   24.6582 H   0  0  0  0  0  0
    8.4212    2.7485   24.6745 H   0  0  0  0  0  0
    7.5619    3.2930   27.5085 H   0  0  0  0  0  0
    8.7717    4.0960   26.5530 H   0  0  0  0  0  0
    5.7922    4.1970   25.9515 H   0  0  0  0  0  0
    6.6787    5.4567   26.7483 H   0  0  0  0  0  0
    5.2863    4.7475   23.7103 H   0  0  0  0  0  0
    5.9227    5.6621   21.5071 H   0  0  0  0  0  0
    8.1002    6.7463   21.2126 H   0  0  0  0  0  0
    9.0629    6.0266   25.3176 H   0  0  0  0  0  0
    8.2572   -1.6182   26.4382 H   0  0  0  0  0  0
    7.2892   -3.8869   26.6557 H   0  0  0  0  0  0
    5.5268   -4.6074   25.0327 H   0  0  0  0  0  0
    5.6780   -0.9941   23.0365 H   0  0  0  0  0  0
    5.2298    1.2162   24.8137 H   0  0  0  0  0  0
    3.2449    2.4005   24.3684 H   0  0  0  0  0  0
  1  2  1  0  0  0
  1 39  1  0  0  0
  1 40  1  0  0  0
  1 41  1  0  0  0
  2  3  1  0  0  0
  2  4  1  0  0  0
  2  5  1  0  0  0
  3 42  1  0  0  0
  3 43  1  0  0  0
  3 44  1  0  0  0
  4 45  1  0  0  0
  4 46  1  0  0  0
  4 47  1  0  0  0
  5 38  2  0  0  0
  5  6  1  0  0  0
  6  7  2  0  0  0
  6 48  1  0  0  0
  7  8  1  0  0  0
  7 49  1  0  0  0
  8  9  1  0  0  0
  8 37  2  0  0  0
  9 10  1  0  0  0
  9 18  1  0  0  0
 10 11  2  0  0  0
 10 12  1  0  0  0
 12 17  1  0  0  0
 12 13  2  0  0  0
 13 14  1  0  0  0
 13 50  1  0  0  0
 14 15  1  0  0  0
 14 51  1  0  0  0
 15 16  2  0  0  0
 15 17  1  0  0  0
 18 19  1  0  0  0
 18 31  1  0  0  0
 18 52  1  0  0  0
 19 20  2  0  0  0
 19 21  1  0  0  0
 21 22  1  0  0  0
 21 53  1  0  0  0
 22 23  1  0  0  0
 22 54  1  0  0  0
 22 55  1  0  0  0
 23 24  1  0  0  0
 23 56  1  0  0  0
 23 57  1  0  0  0
 24 30  2  0  0  0
 24 25  1  0  0  0
 25 26  2  0  0  0
 25 58  1  0  0  0
 26 27  1  0  0  0
 26 59  1  0  0  0
 27 28  2  0  0  0
 27 60  1  0  0  0
 28 29  1  0  0  0
 28 30  1  0  0  0
 30 61  1  0  0  0
 31 36  2  0  0  0
 31 32  1  0  0  0
 32 33  2  0  0  0
 32 62  1  0  0  0
 33 34  1  0  0  0
 33 63  1  0  0  0
 34 35  2  0  0  0
 34 64  1  0  0  0
 35 36  1  0  0  0
 36 65  1  0  0  0
 37 38  1  0  0  0
 37 66  1  0  0  0
 38 67  1  0  0  0
M  END
> <r_i_docking_score>
-2.3111680005726

$$$$
ligprep_5.maegz:185
                    3D
 Schrodinger Suite 2020-4.
 85 89  0  0  1  0            999 V2000
    7.1699    1.0866   28.4697 C   0  0  0  0  0  0
    5.8865    0.6229   27.7507 C   0  0  0  0  0  0
    5.3188   -0.6408   28.4375 C   0  0  0  0  0  0
    4.8352    1.7510   27.9345 C   0  0  0  0  0  0
    6.2038    0.2932   26.2704 C   0  0  0  0  0  0
    7.1590   -0.6879   25.9553 C   0  0  0  0  0  0
    7.3771   -1.0794   24.6340 C   0  0  0  0  0  0
    6.6280   -0.4889   23.6113 C   0  0  0  0  0  0
    6.7107   -0.9576   22.2804 N   0  0  0  0  0  0
    6.0017   -2.0474   21.8195 C   0  0  0  0  0  0
    5.9693   -2.3218   20.6143 O   0  0  0  0  0  0
    5.3009   -2.9736   22.7132 C   0  0  0  0  0  0
    4.8794   -2.8527   24.0456 C   0  0  0  0  0  0
    4.4176   -4.0958   24.3962 N   0  0  0  0  0  0
    4.2214   -4.6496   25.7267 C   0  0  0  0  0  0
    5.1981   -5.8314   26.0185 C   0  0  0  0  0  0
    6.6404   -5.5377   26.0685 N   0  0  0  0  0  0
    7.2984   -5.2363   24.7834 C   0  0  0  0  0  0
    8.8010   -4.9134   24.9167 C   0  0  0  0  0  0
    9.0242   -3.9586   25.9387 O   0  0  0  0  0  0
    8.5403   -4.4200   27.1879 C   0  0  0  0  0  0
    7.0132   -4.6092   27.1353 C   0  0  0  0  0  0
    4.3802   -4.9017   23.3392 N   0  0  0  0  0  0
    4.9391   -4.1851   22.3080 N   0  0  0  0  0  0
    7.5301   -0.1773   21.2957 C   0  0  1  0  0  0
    6.7654    1.0982   20.8253 C   0  0  0  0  0  0
    7.1495    2.2293   21.1080 O   0  0  0  0  0  0
    5.6430    0.8568   20.1238 N   0  0  0  0  0  0
    4.6912    1.8616   19.6406 C   0  0  0  0  0  0
    3.9503    2.6143   20.7667 C   0  0  0  0  0  0
    2.5601    3.1346   20.4144 C   0  0  0  0  0  0
    2.3697    4.0371   19.3616 C   0  0  0  0  0  0
    1.1080    4.5746   19.1102 C   0  0  0  0  0  0
    0.0237    4.2094   19.9090 C   0  0  0  0  0  0
    0.1967    3.2871   20.9395 C   0  0  0  0  0  0
   -0.8568    2.9160   21.7023 F   0  0  0  0  0  0
    1.4590    2.7523   21.1909 C   0  0  0  0  0  0
    8.9613   -0.0645   21.8278 C   0  0  0  0  0  0
    9.7329   -1.2371   21.8599 C   0  0  0  0  0  0
   11.0491   -1.2148   22.3186 C   0  0  0  0  0  0
   11.5802    0.0009   22.7398 C   0  0  0  0  0  0
   10.8675    1.1540   22.7309 N   0  0  0  0  0  0
    9.5844    1.1092   22.2897 C   0  0  0  0  0  0
    5.7391    0.5407   23.9094 C   0  0  0  0  0  0
    5.5260    0.9296   25.2227 C   0  0  0  0  0  0
    7.5673    1.9942   28.0155 H   0  0  0  0  0  0
    6.9947    1.2942   29.5278 H   0  0  0  0  0  0
    7.9682    0.3473   28.4195 H   0  0  0  0  0  0
    4.3508   -0.9187   28.0193 H   0  0  0  0  0  0
    5.9689   -1.5030   28.3075 H   0  0  0  0  0  0
    5.1756   -0.4939   29.5089 H   0  0  0  0  0  0
    3.8724    1.4872   27.4941 H   0  0  0  0  0  0
    4.6489    1.9586   28.9891 H   0  0  0  0  0  0
    5.1621    2.6882   27.4830 H   0  0  0  0  0  0
    7.7157   -1.1853   26.7357 H   0  0  0  0  0  0
    8.0867   -1.8642   24.4145 H   0  0  0  0  0  0
    4.9613   -2.0760   24.7896 H   0  0  0  0  0  0
    4.3307   -3.8514   26.4617 H   0  0  0  0  0  0
    3.1880   -4.9941   25.7935 H   0  0  0  0  0  0
    4.9292   -6.2702   26.9819 H   0  0  0  0  0  0
    5.0319   -6.6390   25.3037 H   0  0  0  0  0  0
    7.1383   -6.0529   24.0792 H   0  0  0  0  0  0
    6.8595   -4.3614   24.3289 H   0  0  0  0  0  0
    9.1569   -4.4531   23.9933 H   0  0  0  0  0  0
    9.3895   -5.8139   25.1002 H   0  0  0  0  0  0
    8.7695   -3.6528   27.9078 H   0  0  0  0  0  0
    9.0522   -5.3318   27.5068 H   0  0  0  0  0  0
    6.5253   -3.6460   26.9862 H   0  0  0  0  0  0
    6.6565   -4.9937   28.0919 H   0  0  0  0  0  0
    7.6426   -0.7165   20.3545 H   0  0  0  0  0  0
    5.4033   -0.1105   19.9436 H   0  0  0  0  0  0
    3.9551    1.2701   19.0950 H   0  0  0  0  0  0
    5.0982    2.5403   18.8878 H   0  0  0  0  0  0
    4.5720    3.4356   21.1279 H   0  0  0  0  0  0
    3.8488    1.9471   21.6205 H   0  0  0  0  0  0
    3.2009    4.3468   18.7440 H   0  0  0  0  0  0
    0.9797    5.2846   18.3047 H   0  0  0  0  0  0
   -0.9527    4.6325   19.7233 H   0  0  0  0  0  0
    1.5833    2.0536   22.0042 H   0  0  0  0  0  0
    9.3150   -2.1717   21.5176 H   0  0  0  0  0  0
   11.6400   -2.1185   22.3367 H   0  0  0  0  0  0
   12.5976    0.0684   23.0925 H   0  0  0  0  0  0
    9.0839    2.0612   22.3420 H   0  0  0  0  0  0
    5.1697    1.0148   23.1264 H   0  0  0  0  0  0
    4.7991    1.7041   25.4007 H   0  0  0  0  0  0
  1  2  1  0  0  0
  1 46  1  0  0  0
  1 47  1  0  0  0
  1 48  1  0  0  0
  2  3  1  0  0  0
  2  4  1  0  0  0
  2  5  1  0  0  0
  3 49  1  0  0  0
  3 50  1  0  0  0
  3 51  1  0  0  0
  4 52  1  0  0  0
  4 53  1  0  0  0
  4 54  1  0  0  0
  5 45  2  0  0  0
  5  6  1  0  0  0
  6  7  2  0  0  0
  6 55  1  0  0  0
  7  8  1  0  0  0
  7 56  1  0  0  0
  8  9  1  0  0  0
  8 44  2  0  0  0
  9 10  1  0  0  0
  9 25  1  0  0  0
 10 11  2  0  0  0
 10 12  1  0  0  0
 12 24  1  0  0  0
 12 13  2  0  0  0
 13 14  1  0  0  0
 13 57  1  0  0  0
 14 15  1  0  0  0
 14 23  1  0  0  0
 15 16  1  0  0  0
 15 58  1  0  0  0
 15 59  1  0  0  0
 16 17  1  0  0  0
 16 60  1  0  0  0
 16 61  1  0  0  0
 17 22  1  0  0  0
 17 18  1  0  0  0
 18 19  1  0  0  0
 18 62  1  0  0  0
 18 63  1  0  0  0
 19 20  1  0  0  0
 19 64  1  0  0  0
 19 65  1  0  0  0
 20 21  1  0  0  0
 21 22  1  0  0  0
 21 66  1  0  0  0
 21 67  1  0  0  0
 22 68  1  0  0  0
 22 69  1  0  0  0
 23 24  2  0  0  0
 25 26  1  0  0  0
 25 38  1  0  0  0
 25 70  1  0  0  0
 26 27  2  0  0  0
 26 28  1  0  0  0
 28 29  1  0  0  0
 28 71  1  0  0  0
 29 30  1  0  0  0
 29 72  1  0  0  0
 29 73  1  0  0  0
 30 31  1  0  0  0
 30 74  1  0  0  0
 30 75  1  0  0  0
 31 37  2  0  0  0
 31 32  1  0  0  0
 32 33  2  0  0  0
 32 76  1  0  0  0
 33 34  1  0  0  0
 33 77  1  0  0  0
 34 35  2  0  0  0
 34 78  1  0  0  0
 35 36  1  0  0  0
 35 37  1  0  0  0
 37 79  1  0  0  0
 38 43  2  0  0  0
 38 39  1  0  0  0
 39 40  2  0  0  0
 39 80  1  0  0  0
 40 41  1  0  0  0
 40 81  1  0  0  0
 41 42  2  0  0  0
 41 82  1  0  0  0
 42 43  1  0  0  0
 43 83  1  0  0  0
 44 45  1  0  0  0
 44 84  1  0  0  0
 45 85  1  0  0  0
M  END
> <r_i_docking_score>
-3.06673589449873

$$$$
ligprep_5.maegz:186
                    3D
 Schrodinger Suite 2020-4.
 66 69  0  0  1  0            999 V2000
    4.0186   -7.4527   24.7072 C   0  0  0  0  0  0
    4.2468   -6.1893   25.5768 C   0  0  0  0  0  0
    2.8863   -5.8656   26.2503 C   0  0  0  0  0  0
    5.2618   -6.5041   26.7005 C   0  0  0  0  0  0
    4.7948   -5.0224   24.7146 C   0  0  0  0  0  0
    5.8723   -5.2391   23.8390 C   0  0  0  0  0  0
    6.3896   -4.2057   23.0644 C   0  0  0  0  0  0
    5.8422   -2.9228   23.1612 C   0  0  0  0  0  0
    6.3142   -1.8567   22.3520 N   0  0  0  0  0  0
    5.9970   -1.8993   21.0134 C   0  0  0  0  0  0
    5.5697   -2.9180   20.4547 O   0  0  0  0  0  0
    6.1315   -0.7015   20.2010 C   0  0  0  0  0  0
    6.3687   -0.6845   18.8254 C   0  0  0  0  0  0
    6.2732    0.6290   18.4578 N   0  0  0  0  0  0
    5.9701    1.3921   19.5016 N   0  0  0  0  0  0
    5.8655    0.5415   20.5837 N   0  0  0  0  0  0
    7.2427   -0.8342   22.9360 C   0  0  1  0  0  0
    6.6793   -0.0822   24.1705 C   0  0  0  0  0  0
    7.1555   -0.2420   25.2953 O   0  0  0  0  0  0
    5.6731    0.7648   23.9093 N   0  0  0  0  0  0
    5.0472    1.6735   24.8719 C   0  0  0  0  0  0
    6.0137    2.6416   25.6069 C   0  0  0  0  0  0
    7.1094    3.2511   24.7347 C   0  0  0  0  0  0
    6.7819    4.1526   23.7164 C   0  0  0  0  0  0
    7.7834    4.6878   22.9027 C   0  0  0  0  0  0
    9.1154    4.3256   23.1098 C   0  0  0  0  0  0
    9.4483    3.4243   24.1194 C   0  0  0  0  0  0
   10.7411    3.0716   24.3086 F   0  0  0  0  0  0
    8.4492    2.8937   24.9359 C   0  0  0  0  0  0
    8.6090   -1.4592   23.1493 C   0  0  0  0  0  0
    8.8762   -2.3930   24.1615 C   0  0  0  0  0  0
   10.1599   -2.9114   24.3076 C   0  0  0  0  0  0
   11.1592   -2.4535   23.4458 C   0  0  0  0  0  0
   10.9353   -1.5515   22.4620 N   0  0  0  0  0  0
    9.6741   -1.0751   22.3250 C   0  0  0  0  0  0
    4.7724   -2.6948   24.0291 C   0  0  0  0  0  0
    4.2598   -3.7282   24.8011 C   0  0  0  0  0  0
    3.5706   -8.2640   25.2840 H   0  0  0  0  0  0
    4.9459   -7.8403   24.2884 H   0  0  0  0  0  0
    3.3496   -7.2472   23.8684 H   0  0  0  0  0  0
    2.9728   -5.0595   26.9816 H   0  0  0  0  0  0
    2.1338   -5.5727   25.5189 H   0  0  0  0  0  0
    2.4887   -6.7248   26.7901 H   0  0  0  0  0  0
    5.4637   -5.6225   27.3079 H   0  0  0  0  0  0
    4.8974   -7.2811   27.3746 H   0  0  0  0  0  0
    6.2164   -6.8505   26.3074 H   0  0  0  0  0  0
    6.3224   -6.2138   23.7458 H   0  0  0  0  0  0
    7.2104   -4.3968   22.3876 H   0  0  0  0  0  0
    6.5757   -1.4600   18.1010 H   0  0  0  0  0  0
    6.3854    0.9964   17.5221 H   0  0  0  0  0  0
    7.4413   -0.0288   22.2357 H   0  0  0  0  0  0
    5.3132    0.8039   22.9630 H   0  0  0  0  0  0
    4.3398    2.2542   24.2818 H   0  0  0  0  0  0
    4.4941    1.0663   25.5895 H   0  0  0  0  0  0
    5.4452    3.4462   26.0770 H   0  0  0  0  0  0
    6.4807    2.1080   26.4348 H   0  0  0  0  0  0
    5.7513    4.4299   23.5419 H   0  0  0  0  0  0
    7.5245    5.3728   22.1078 H   0  0  0  0  0  0
    9.8951    4.7349   22.4860 H   0  0  0  0  0  0
    8.7203    2.1894   25.7101 H   0  0  0  0  0  0
    8.0954   -2.7190   24.8310 H   0  0  0  0  0  0
   10.3686   -3.6550   25.0621 H   0  0  0  0  0  0
   12.1648   -2.8413   23.5148 H   0  0  0  0  0  0
    9.5327   -0.3624   21.5256 H   0  0  0  0  0  0
    4.3374   -1.7100   24.1066 H   0  0  0  0  0  0
    3.4416   -3.4955   25.4630 H   0  0  0  0  0  0
  1  2  1  0  0  0
  1 38  1  0  0  0
  1 39  1  0  0  0
  1 40  1  0  0  0
  2  3  1  0  0  0
  2  4  1  0  0  0
  2  5  1  0  0  0
  3 41  1  0  0  0
  3 42  1  0  0  0
  3 43  1  0  0  0
  4 44  1  0  0  0
  4 45  1  0  0  0
  4 46  1  0  0  0
  5 37  2  0  0  0
  5  6  1  0  0  0
  6  7  2  0  0  0
  6 47  1  0  0  0
  7  8  1  0  0  0
  7 48  1  0  0  0
  8  9  1  0  0  0
  8 36  2  0  0  0
  9 10  1  0  0  0
  9 17  1  0  0  0
 10 11  2  0  0  0
 10 12  1  0  0  0
 12 16  1  0  0  0
 12 13  2  0  0  0
 13 14  1  0  0  0
 13 49  1  0  0  0
 14 15  1  0  0  0
 14 50  1  0  0  0
 15 16  2  0  0  0
 17 18  1  0  0  0
 17 30  1  0  0  0
 17 51  1  0  0  0
 18 19  2  0  0  0
 18 20  1  0  0  0
 20 21  1  0  0  0
 20 52  1  0  0  0
 21 22  1  0  0  0
 21 53  1  0  0  0
 21 54  1  0  0  0
 22 23  1  0  0  0
 22 55  1  0  0  0
 22 56  1  0  0  0
 23 29  2  0  0  0
 23 24  1  0  0  0
 24 25  2  0  0  0
 24 57  1  0  0  0
 25 26  1  0  0  0
 25 58  1  0  0  0
 26 27  2  0  0  0
 26 59  1  0  0  0
 27 28  1  0  0  0
 27 29  1  0  0  0
 29 60  1  0  0  0
 30 35  2  0  0  0
 30 31  1  0  0  0
 31 32  2  0  0  0
 31 61  1  0  0  0
 32 33  1  0  0  0
 32 62  1  0  0  0
 33 34  2  0  0  0
 33 63  1  0  0  0
 34 35  1  0  0  0
 35 64  1  0  0  0
 36 37  1  0  0  0
 36 65  1  0  0  0
 37 66  1  0  0  0
M  END
> <r_i_docking_score>
-3.56578472083352

$$$$
ligprep_5.maegz:187
                    3D
 Schrodinger Suite 2020-4.
 78 81  0  0  1  0            999 V2000
   11.6878   -2.2996   22.9033 C   0  0  0  0  0  0
   11.1182   -1.1791   22.0279 C   0  0  0  0  0  0
   11.0856    0.0610   22.7183 O   0  0  0  0  0  0
   12.2102    0.7917   22.9263 C   0  0  0  0  0  0
   13.3500    0.4695   22.5852 O   0  0  0  0  0  0
   11.9777    2.0976   23.6937 C   0  0  0  0  0  0
   10.5863    2.5268   23.7588 N   0  0  0  0  0  0
    9.6656    2.3195   24.7527 C   0  0  0  0  0  0
    8.4692    2.8260   24.2559 C   0  0  0  0  0  0
    7.1966    2.8429   24.9555 C   0  0  0  0  0  0
    7.1827    3.2059   26.1334 O   0  0  0  0  0  0
    6.0571    2.4673   24.2707 N   0  0  0  0  0  0
    6.1253    1.8056   23.0269 C   0  0  0  0  0  0
    5.5474    2.3979   21.9036 C   0  0  0  0  0  0
    5.6230    1.7608   20.6713 C   0  0  0  0  0  0
    6.2731    0.5251   20.5437 C   0  0  0  0  0  0
    6.4203   -0.1855   19.1824 C   0  0  0  0  0  0
    5.7115    0.5592   18.0256 C   0  0  0  0  0  0
    5.8270   -1.6065   19.2532 C   0  0  0  0  0  0
    7.9185   -0.3048   18.8451 C   0  0  0  0  0  0
    6.8294   -0.0654   21.6851 C   0  0  0  0  0  0
    6.7503    0.5627   22.9194 C   0  0  0  0  0  0
    4.6894    2.5991   24.8681 C   0  0  1  0  0  0
    4.4533    1.5175   25.9669 C   0  0  0  0  0  0
    4.1216    1.8333   27.1093 O   0  0  0  0  0  0
    4.6748    0.2397   25.6007 N   0  0  0  0  0  0
    4.5630   -0.8969   26.5136 C   0  0  0  0  0  0
    4.3852   -2.2514   25.7892 C   0  0  0  0  0  0
    5.5182   -2.6713   24.8530 C   0  0  0  0  0  0
    6.8483   -2.6686   25.2919 C   0  0  0  0  0  0
    7.8721   -3.0897   24.4448 C   0  0  0  0  0  0
    7.5768   -3.5341   23.1581 C   0  0  0  0  0  0
    6.2516   -3.5657   22.7246 C   0  0  0  0  0  0
    5.9523   -4.0422   21.4978 F   0  0  0  0  0  0
    5.2300   -3.1210   23.5633 C   0  0  0  0  0  0
    4.2735    4.0494   25.1662 C   0  0  0  0  0  0
    4.9230    5.1468   24.5675 C   0  0  0  0  0  0
    4.4707    6.4491   24.7840 C   0  0  0  0  0  0
    3.3531    6.6381   25.5959 C   0  0  0  0  0  0
    2.6778    5.6085   26.1623 N   0  0  0  0  0  0
    3.1325    4.3507   25.9361 C   0  0  0  0  0  0
    8.7009    3.3443   23.0559 N   0  0  0  0  0  0
   10.0223    3.1290   22.7138 N   0  0  0  0  0  0
   11.5593   -3.2486   22.4006 H   0  0  0  0  0  0
   11.1834   -2.3581   23.8684 H   0  0  0  0  0  0
   12.7567   -2.1691   23.0673 H   0  0  0  0  0  0
   11.6983   -1.0872   21.1112 H   0  0  0  0  0  0
   10.0999   -1.4310   21.7297 H   0  0  0  0  0  0
   12.3304    1.9450   24.7074 H   0  0  0  0  0  0
   12.5643    2.9017   23.2478 H   0  0  0  0  0  0
    9.9249    1.8185   25.6745 H   0  0  0  0  0  0
    5.0552    3.3556   21.9700 H   0  0  0  0  0  0
    5.1796    2.2632   19.8251 H   0  0  0  0  0  0
    6.1495    1.5388   17.8318 H   0  0  0  0  0  0
    5.7866   -0.0159   17.1103 H   0  0  0  0  0  0
    4.6485    0.7080   18.2171 H   0  0  0  0  0  0
    6.3262   -2.2183   20.0011 H   0  0  0  0  0  0
    4.7700   -1.5713   19.5059 H   0  0  0  0  0  0
    5.9290   -2.1334   18.3036 H   0  0  0  0  0  0
    8.4591   -0.8607   19.6103 H   0  0  0  0  0  0
    8.0937   -0.8298   17.9076 H   0  0  0  0  0  0
    8.3666    0.6826   18.7622 H   0  0  0  0  0  0
    7.3415   -1.0106   21.6236 H   0  0  0  0  0  0
    7.1977    0.0895   23.7812 H   0  0  0  0  0  0
    3.9836    2.2883   24.0960 H   0  0  0  0  0  0
    4.9604    0.0466   24.6538 H   0  0  0  0  0  0
    5.5101   -0.9001   27.0592 H   0  0  0  0  0  0
    3.7803   -0.7592   27.2636 H   0  0  0  0  0  0
    4.2625   -3.0401   26.5352 H   0  0  0  0  0  0
    3.4388   -2.2285   25.2417 H   0  0  0  0  0  0
    7.0912   -2.3537   26.2933 H   0  0  0  0  0  0
    8.8957   -3.0874   24.7918 H   0  0  0  0  0  0
    8.3699   -3.8744   22.5072 H   0  0  0  0  0  0
    4.2116   -3.1524   23.2074 H   0  0  0  0  0  0
    5.7766    5.0065   23.9183 H   0  0  0  0  0  0
    4.9704    7.2887   24.3219 H   0  0  0  0  0  0
    2.9657    7.6284   25.7849 H   0  0  0  0  0  0
    2.5343    3.5720   26.3805 H   0  0  0  0  0  0
  1  2  1  0  0  0
  1 44  1  0  0  0
  1 45  1  0  0  0
  1 46  1  0  0  0
  2  3  1  0  0  0
  2 47  1  0  0  0
  2 48  1  0  0  0
  3  4  1  0  0  0
  4  5  2  0  0  0
  4  6  1  0  0  0
  6  7  1  0  0  0
  6 49  1  0  0  0
  6 50  1  0  0  0
  7 43  1  0  0  0
  7  8  1  0  0  0
  8  9  2  0  0  0
  8 51  1  0  0  0
  9 10  1  0  0  0
  9 42  1  0  0  0
 10 11  2  0  0  0
 10 12  1  0  0  0
 12 13  1  0  0  0
 12 23  1  0  0  0
 13 22  2  0  0  0
 13 14  1  0  0  0
 14 15  2  0  0  0
 14 52  1  0  0  0
 15 16  1  0  0  0
 15 53  1  0  0  0
 16 17  1  0  0  0
 16 21  2  0  0  0
 17 18  1  0  0  0
 17 19  1  0  0  0
 17 20  1  0  0  0
 18 54  1  0  0  0
 18 55  1  0  0  0
 18 56  1  0  0  0
 19 57  1  0  0  0
 19 58  1  0  0  0
 19 59  1  0  0  0
 20 60  1  0  0  0
 20 61  1  0  0  0
 20 62  1  0  0  0
 21 22  1  0  0  0
 21 63  1  0  0  0
 22 64  1  0  0  0
 23 24  1  0  0  0
 23 36  1  0  0  0
 23 65  1  0  0  0
 24 25  2  0  0  0
 24 26  1  0  0  0
 26 27  1  0  0  0
 26 66  1  0  0  0
 27 28  1  0  0  0
 27 67  1  0  0  0
 27 68  1  0  0  0
 28 29  1  0  0  0
 28 69  1  0  0  0
 28 70  1  0  0  0
 29 35  2  0  0  0
 29 30  1  0  0  0
 30 31  2  0  0  0
 30 71  1  0  0  0
 31 32  1  0  0  0
 31 72  1  0  0  0
 32 33  2  0  0  0
 32 73  1  0  0  0
 33 34  1  0  0  0
 33 35  1  0  0  0
 35 74  1  0  0  0
 36 41  2  0  0  0
 36 37  1  0  0  0
 37 38  2  0  0  0
 37 75  1  0  0  0
 38 39  1  0  0  0
 38 76  1  0  0  0
 39 40  2  0  0  0
 39 77  1  0  0  0
 40 41  1  0  0  0
 41 78  1  0  0  0
 42 43  2  0  0  0
M  END
> <r_i_docking_score>
-3.74436153918706

$$$$
ligprep_5.maegz:189
                    3D
 Schrodinger Suite 2020-4.
 69 72  0  0  1  0            999 V2000
    3.1473   -5.5582   26.6177 C   0  0  0  0  0  0
    4.6635   -5.2914   26.7964 C   0  0  0  0  0  0
    4.9102   -4.6331   28.1738 C   0  0  0  0  0  0
    5.3655   -6.6701   26.8035 C   0  0  0  0  0  0
    5.1819   -4.3544   25.6764 C   0  0  0  0  0  0
    4.5504   -3.1190   25.4760 C   0  0  0  0  0  0
    4.9831   -2.2498   24.4829 C   0  0  0  0  0  0
    6.0809   -2.5840   23.6891 C   0  0  0  0  0  0
    6.4716   -1.7004   22.6502 N   0  0  0  0  0  0
    5.9750   -1.9660   21.3969 C   0  0  0  0  0  0
    5.5696   -3.0981   21.0928 O   0  0  0  0  0  0
    5.9294   -0.9137   20.3835 C   0  0  0  0  0  0
    6.0833   -1.2525   19.0715 C   0  0  0  0  0  0
    5.9696   -0.3426   18.0617 N   0  0  0  0  0  0
    5.6446    0.9493   18.3085 C   0  0  0  0  0  0
    5.5696    1.7465   17.3895 O   0  0  0  0  0  0
    5.4412    1.2457   19.7456 C   0  0  0  0  0  0
    5.5698    0.3839   20.7066 N   0  0  0  0  0  0
    7.4370   -0.5884   22.9327 C   0  0  1  0  0  0
    7.0680    0.2834   24.1607 C   0  0  0  0  0  0
    7.8105    0.3421   25.1418 O   0  0  0  0  0  0
    5.9023    0.9458   24.0772 N   0  0  0  0  0  0
    5.3579    1.7861   25.1445 C   0  0  0  0  0  0
    6.1685    3.0640   25.4659 C   0  0  0  0  0  0
    6.3511    4.0115   24.2880 C   0  0  0  0  0  0
    7.4059    3.8235   23.3893 C   0  0  0  0  0  0
    7.5681    4.6882   22.3077 C   0  0  0  0  0  0
    6.6892    5.7542   22.1257 C   0  0  0  0  0  0
    5.6397    5.9506   23.0216 C   0  0  0  0  0  0
    4.7864    6.9846   22.8497 F   0  0  0  0  0  0
    5.4691    5.0804   24.0993 C   0  0  0  0  0  0
    8.8573   -1.1197   22.9250 C   0  0  0  0  0  0
    9.7353   -0.7269   21.9077 C   0  0  0  0  0  0
   11.0519   -1.1846   21.9089 C   0  0  0  0  0  0
   11.4576   -2.0541   22.9150 C   0  0  0  0  0  0
   10.6301   -2.4545   23.9081 N   0  0  0  0  0  0
    9.3627   -1.9724   23.9168 C   0  0  0  0  0  0
    6.7104   -3.8205   23.8609 C   0  0  0  0  0  0
    6.2680   -4.6943   24.8511 C   0  0  0  0  0  0
    2.9326   -5.9888   25.6380 H   0  0  0  0  0  0
    2.7714   -6.2557   27.3678 H   0  0  0  0  0  0
    2.5484   -4.6515   26.7117 H   0  0  0  0  0  0
    5.9728   -4.4507   28.3402 H   0  0  0  0  0  0
    4.3964   -3.6759   28.2697 H   0  0  0  0  0  0
    4.5585   -5.2670   28.9895 H   0  0  0  0  0  0
    6.4349   -6.5728   26.9904 H   0  0  0  0  0  0
    4.9693   -7.3245   27.5817 H   0  0  0  0  0  0
    5.2343   -7.1867   25.8518 H   0  0  0  0  0  0
    3.7115   -2.8239   26.0880 H   0  0  0  0  0  0
    4.4588   -1.3188   24.3251 H   0  0  0  0  0  0
    6.2967   -2.2353   18.6868 H   0  0  0  0  0  0
    6.1779   -0.5658   17.0958 H   0  0  0  0  0  0
    5.1626    2.2611   20.0134 H   0  0  0  0  0  0
    7.4329    0.1402   22.1285 H   0  0  0  0  0  0
    5.3399    0.8398   23.2414 H   0  0  0  0  0  0
    4.3892    2.1002   24.7533 H   0  0  0  0  0  0
    5.1509    1.2072   26.0462 H   0  0  0  0  0  0
    5.6920    3.5962   26.2906 H   0  0  0  0  0  0
    7.1503    2.7970   25.8607 H   0  0  0  0  0  0
    8.0957    3.0028   23.5230 H   0  0  0  0  0  0
    8.3687    4.5306   21.6020 H   0  0  0  0  0  0
    6.8047    6.4137   21.2770 H   0  0  0  0  0  0
    4.6491    5.2423   24.7824 H   0  0  0  0  0  0
    9.4046   -0.0747   21.1114 H   0  0  0  0  0  0
   11.7324   -0.8979   21.1242 H   0  0  0  0  0  0
   12.4588   -2.4585   22.9316 H   0  0  0  0  0  0
    8.7485   -2.2778   24.7505 H   0  0  0  0  0  0
    7.5362   -4.1057   23.2248 H   0  0  0  0  0  0
    6.7844   -5.6372   24.9534 H   0  0  0  0  0  0
  1  2  1  0  0  0
  1 40  1  0  0  0
  1 41  1  0  0  0
  1 42  1  0  0  0
  2  3  1  0  0  0
  2  4  1  0  0  0
  2  5  1  0  0  0
  3 43  1  0  0  0
  3 44  1  0  0  0
  3 45  1  0  0  0
  4 46  1  0  0  0
  4 47  1  0  0  0
  4 48  1  0  0  0
  5 39  2  0  0  0
  5  6  1  0  0  0
  6  7  2  0  0  0
  6 49  1  0  0  0
  7  8  1  0  0  0
  7 50  1  0  0  0
  8  9  1  0  0  0
  8 38  2  0  0  0
  9 10  1  0  0  0
  9 19  1  0  0  0
 10 11  2  0  0  0
 10 12  1  0  0  0
 12 18  1  0  0  0
 12 13  2  0  0  0
 13 14  1  0  0  0
 13 51  1  0  0  0
 14 15  1  0  0  0
 14 52  1  0  0  0
 15 16  2  0  0  0
 15 17  1  0  0  0
 17 18  2  0  0  0
 17 53  1  0  0  0
 19 20  1  0  0  0
 19 32  1  0  0  0
 19 54  1  0  0  0
 20 21  2  0  0  0
 20 22  1  0  0  0
 22 23  1  0  0  0
 22 55  1  0  0  0
 23 24  1  0  0  0
 23 56  1  0  0  0
 23 57  1  0  0  0
 24 25  1  0  0  0
 24 58  1  0  0  0
 24 59  1  0  0  0
 25 31  2  0  0  0
 25 26  1  0  0  0
 26 27  2  0  0  0
 26 60  1  0  0  0
 27 28  1  0  0  0
 27 61  1  0  0  0
 28 29  2  0  0  0
 28 62  1  0  0  0
 29 30  1  0  0  0
 29 31  1  0  0  0
 31 63  1  0  0  0
 32 37  2  0  0  0
 32 33  1  0  0  0
 33 34  2  0  0  0
 33 64  1  0  0  0
 34 35  1  0  0  0
 34 65  1  0  0  0
 35 36  2  0  0  0
 35 66  1  0  0  0
 36 37  1  0  0  0
 37 67  1  0  0  0
 38 39  1  0  0  0
 38 68  1  0  0  0
 39 69  1  0  0  0
M  END
> <r_i_docking_score>
-2.91900669398426

$$$$
ligprep_5.maegz:190
                    3D
 Schrodinger Suite 2020-4.
 76 80  0  0  1  0            999 V2000
    4.5843    2.1528   27.2117 C   0  0  0  0  0  0
    5.7014    1.1213   27.5070 C   0  0  0  0  0  0
    6.7201    1.8093   28.4531 C   0  0  0  0  0  0
    5.0988   -0.0848   28.2671 C   0  0  0  0  0  0
    6.3311    0.6362   26.1775 C   0  0  0  0  0  0
    7.7019    0.7746   25.9073 C   0  0  0  0  0  0
    8.2413    0.3307   24.7049 C   0  0  0  0  0  0
    7.4145   -0.2570   23.7463 C   0  0  0  0  0  0
    7.9469   -0.7036   22.5071 N   0  0  0  0  0  0
    7.6598   -0.0415   21.3376 C   0  0  0  0  0  0
    7.9705   -0.4531   20.2191 O   0  0  0  0  0  0
    6.9667    1.2203   21.4141 C   0  0  0  0  0  0
    5.6398    1.4272   21.0705 C   0  0  0  0  0  0
    5.3920    2.7492   21.3587 N   0  0  0  0  0  0
    4.1250    3.4866   21.3672 C   0  0  2  0  0  0
    3.3384    3.3267   22.6678 C   0  0  0  0  0  0
    1.9883    3.5374   22.2844 O   0  0  0  0  0  0
    1.7956    2.9707   20.9920 C   0  0  0  0  0  0
    3.1517    3.0102   20.3009 C   0  0  0  0  0  0
    3.4009    2.6759   19.1446 O   0  0  0  0  0  0
    6.4763    3.3072   21.9081 N   0  0  0  0  0  0
    7.4695    2.3413   21.9084 N   0  0  0  0  0  0
    8.8253   -1.9160   22.4535 C   0  0  1  0  0  0
   10.2752   -1.5999   22.9189 C   0  0  0  0  0  0
   10.7712   -2.1549   23.9026 O   0  0  0  0  0  0
   10.9349   -0.6784   22.1938 N   0  0  0  0  0  0
   12.3272   -0.3157   22.4407 C   0  0  0  0  0  0
   12.5298    0.7202   23.5657 C   0  0  0  0  0  0
   12.2192    2.1673   23.2006 C   0  0  0  0  0  0
   13.0938    2.8901   22.3801 C   0  0  0  0  0  0
   12.8720    4.2463   22.1364 C   0  0  0  0  0  0
   11.7737    4.8877   22.7079 C   0  0  0  0  0  0
   10.8888    4.1687   23.5105 C   0  0  0  0  0  0
    9.8272    4.7896   24.0720 F   0  0  0  0  0  0
   11.1114    2.8154   23.7575 C   0  0  0  0  0  0
    8.1596   -3.0765   23.1838 C   0  0  0  0  0  0
    8.0970   -3.1879   24.5844 C   0  0  0  0  0  0
    7.4339   -4.2643   25.1750 C   0  0  0  0  0  0
    6.8459   -5.2150   24.3426 C   0  0  0  0  0  0
    6.9042   -5.1487   22.9900 N   0  0  0  0  0  0
    7.5590   -4.0962   22.4360 C   0  0  0  0  0  0
    6.0512   -0.4134   24.0049 C   0  0  0  0  0  0
    5.5172    0.0291   25.2104 C   0  0  0  0  0  0
    3.7678    1.7262   26.6301 H   0  0  0  0  0  0
    4.1430    2.5398   28.1314 H   0  0  0  0  0  0
    4.9712    3.0073   26.6543 H   0  0  0  0  0  0
    7.5292    1.1362   28.7423 H   0  0  0  0  0  0
    7.1677    2.6877   27.9863 H   0  0  0  0  0  0
    6.2458    2.1494   29.3746 H   0  0  0  0  0  0
    5.8532   -0.8450   28.4635 H   0  0  0  0  0  0
    4.6758    0.2161   29.2270 H   0  0  0  0  0  0
    4.2967   -0.5629   27.7065 H   0  0  0  0  0  0
    8.3695    1.2250   26.6228 H   0  0  0  0  0  0
    9.2984    0.4432   24.5223 H   0  0  0  0  0  0
    4.8669    0.7725   20.6916 H   0  0  0  0  0  0
    4.3862    4.5271   21.1631 H   0  0  0  0  0  0
    3.6316    4.0609   23.4205 H   0  0  0  0  0  0
    3.4512    2.3464   23.1359 H   0  0  0  0  0  0
    1.4713    1.9315   21.0833 H   0  0  0  0  0  0
    1.0417    3.5234   20.4287 H   0  0  0  0  0  0
    8.9767   -2.2363   21.4190 H   0  0  0  0  0  0
   10.4763   -0.2723   21.3893 H   0  0  0  0  0  0
   12.9590   -1.1919   22.6089 H   0  0  0  0  0  0
   12.7157    0.0974   21.5088 H   0  0  0  0  0  0
   11.9835    0.4139   24.4605 H   0  0  0  0  0  0
   13.5730    0.6918   23.8784 H   0  0  0  0  0  0
   13.9642    2.4098   21.9538 H   0  0  0  0  0  0
   13.5529    4.8032   21.5110 H   0  0  0  0  0  0
   11.5947    5.9343   22.5182 H   0  0  0  0  0  0
   10.4323    2.2882   24.4082 H   0  0  0  0  0  0
    8.5478   -2.4340   25.2113 H   0  0  0  0  0  0
    7.3777   -4.3559   26.2491 H   0  0  0  0  0  0
    6.3100   -6.0516   24.7627 H   0  0  0  0  0  0
    7.5770   -4.0760   21.3552 H   0  0  0  0  0  0
    5.4042   -0.8764   23.2741 H   0  0  0  0  0  0
    4.4602   -0.1036   25.3833 H   0  0  0  0  0  0
  1  2  1  0  0  0
  1 44  1  0  0  0
  1 45  1  0  0  0
  1 46  1  0  0  0
  2  3  1  0  0  0
  2  4  1  0  0  0
  2  5  1  0  0  0
  3 47  1  0  0  0
  3 48  1  0  0  0
  3 49  1  0  0  0
  4 50  1  0  0  0
  4 51  1  0  0  0
  4 52  1  0  0  0
  5 43  2  0  0  0
  5  6  1  0  0  0
  6  7  2  0  0  0
  6 53  1  0  0  0
  7  8  1  0  0  0
  7 54  1  0  0  0
  8  9  1  0  0  0
  8 42  2  0  0  0
  9 10  1  0  0  0
  9 23  1  0  0  0
 10 11  2  0  0  0
 10 12  1  0  0  0
 12 22  1  0  0  0
 12 13  2  0  0  0
 13 14  1  0  0  0
 13 55  1  0  0  0
 14 15  1  0  0  0
 14 21  1  0  0  0
 15 19  1  0  0  0
 15 16  1  0  0  0
 15 56  1  0  0  0
 16 17  1  0  0  0
 16 57  1  0  0  0
 16 58  1  0  0  0
 17 18  1  0  0  0
 18 19  1  0  0  0
 18 59  1  0  0  0
 18 60  1  0  0  0
 19 20  2  0  0  0
 21 22  2  0  0  0
 23 24  1  0  0  0
 23 36  1  0  0  0
 23 61  1  0  0  0
 24 25  2  0  0  0
 24 26  1  0  0  0
 26 27  1  0  0  0
 26 62  1  0  0  0
 27 28  1  0  0  0
 27 63  1  0  0  0
 27 64  1  0  0  0
 28 29  1  0  0  0
 28 65  1  0  0  0
 28 66  1  0  0  0
 29 35  2  0  0  0
 29 30  1  0  0  0
 30 31  2  0  0  0
 30 67  1  0  0  0
 31 32  1  0  0  0
 31 68  1  0  0  0
 32 33  2  0  0  0
 32 69  1  0  0  0
 33 34  1  0  0  0
 33 35  1  0  0  0
 35 70  1  0  0  0
 36 41  2  0  0  0
 36 37  1  0  0  0
 37 38  2  0  0  0
 37 71  1  0  0  0
 38 39  1  0  0  0
 38 72  1  0  0  0
 39 40  2  0  0  0
 39 73  1  0  0  0
 40 41  1  0  0  0
 41 74  1  0  0  0
 42 43  1  0  0  0
 42 75  1  0  0  0
 43 76  1  0  0  0
M  END
> <r_i_docking_score>
-3.97258781106811

$$$$
ligprep_5.maegz:191
                    3D
 Schrodinger Suite 2020-4.
 71 74  0  0  1  0            999 V2000
    3.0710   -4.6509   25.1700 C   0  0  0  0  0  0
    4.0030   -5.3569   24.1485 C   0  0  0  0  0  0
    4.6660   -6.5415   24.9021 C   0  0  0  0  0  0
    3.1301   -5.9272   23.0141 C   0  0  0  0  0  0
    5.0802   -4.4059   23.5578 C   0  0  0  0  0  0
    4.9670   -3.0107   23.6624 C   0  0  0  0  0  0
    5.9986   -2.1746   23.2480 C   0  0  0  0  0  0
    7.1743   -2.7198   22.7147 C   0  0  0  0  0  0
    8.3287   -1.8990   22.5322 N   0  0  0  0  0  0
    8.3142   -0.8620   21.6062 C   0  0  0  0  0  0
    9.2142   -0.0303   21.5098 O   0  0  0  0  0  0
    7.2197   -0.6668   20.6568 C   0  0  0  0  0  0
    7.0775    0.5038   19.8762 C   0  0  0  0  0  0
    5.9914    0.3261   19.0519 C   0  0  0  0  0  0
    5.2911    1.1806   18.0349 C   0  0  0  0  0  0
    4.3685    2.0057   18.7080 O   0  0  0  0  0  0
    5.5696   -0.9265   19.3700 N   0  0  0  0  0  0
    6.2901   -1.5332   20.3070 N   0  0  0  0  0  0
    9.5545   -2.2718   23.3741 C   0  0  1  0  0  0
   10.7367   -1.2736   23.5942 C   0  0  0  0  0  0
   10.9211   -0.7931   24.7080 O   0  0  0  0  0  0
   11.5282   -0.9962   22.5418 N   0  0  0  0  0  0
   12.7632   -0.2039   22.5259 C   0  0  0  0  0  0
   12.9290    1.0286   23.4559 C   0  0  0  0  0  0
   12.0718    2.2782   23.2402 C   0  0  0  0  0  0
   10.6758    2.2427   23.3247 C   0  0  0  0  0  0
    9.9287    3.4199   23.2791 C   0  0  0  0  0  0
   10.5744    4.6509   23.1707 C   0  0  0  0  0  0
   11.9637    4.7024   23.0869 C   0  0  0  0  0  0
   12.5930    5.8952   22.9924 F   0  0  0  0  0  0
   12.7043    3.5215   23.1031 C   0  0  0  0  0  0
    9.1921   -2.9725   24.6930 C   0  0  0  0  0  0
    8.1651   -2.5230   25.5364 C   0  0  0  0  0  0
    7.7874   -3.2812   26.6443 C   0  0  0  0  0  0
    8.5015   -4.4447   26.9316 C   0  0  0  0  0  0
    9.5650   -4.8512   26.1974 N   0  0  0  0  0  0
    9.8942   -4.1121   25.1082 C   0  0  0  0  0  0
    7.2575   -4.1017   22.5123 C   0  0  0  0  0  0
    6.2161   -4.9323   22.9214 C   0  0  0  0  0  0
    2.3757   -5.3533   25.6334 H   0  0  0  0  0  0
    2.4558   -3.8792   24.7069 H   0  0  0  0  0  0
    3.6405   -4.1854   25.9762 H   0  0  0  0  0  0
    5.1698   -7.2295   24.2241 H   0  0  0  0  0  0
    5.3993   -6.1954   25.6319 H   0  0  0  0  0  0
    3.9310   -7.1398   25.4423 H   0  0  0  0  0  0
    3.7363   -6.4887   22.3068 H   0  0  0  0  0  0
    2.3693   -6.6107   23.3932 H   0  0  0  0  0  0
    2.6140   -5.1404   22.4647 H   0  0  0  0  0  0
    4.1031   -2.5458   24.1086 H   0  0  0  0  0  0
    5.9084   -1.1080   23.4028 H   0  0  0  0  0  0
    7.6873    1.3929   19.9254 H   0  0  0  0  0  0
    5.9694    1.7959   17.4517 H   0  0  0  0  0  0
    4.7700    0.5617   17.3071 H   0  0  0  0  0  0
    3.9499    2.5791   18.0536 H   0  0  0  0  0  0
    4.7348   -1.3425   18.9710 H   0  0  0  0  0  0
   10.0221   -3.0410   22.7573 H   0  0  0  0  0  0
   11.2505   -1.3860   21.6505 H   0  0  0  0  0  0
   13.6320   -0.8580   22.6097 H   0  0  0  0  0  0
   12.8148    0.1788   21.5089 H   0  0  0  0  0  0
   12.8497    0.7457   24.5043 H   0  0  0  0  0  0
   13.9696    1.3194   23.3455 H   0  0  0  0  0  0
   10.1497    1.3142   23.4580 H   0  0  0  0  0  0
    8.8514    3.3779   23.3427 H   0  0  0  0  0  0
    9.9975    5.5634   23.1405 H   0  0  0  0  0  0
   13.7811    3.5867   23.0562 H   0  0  0  0  0  0
    7.6261   -1.6169   25.3035 H   0  0  0  0  0  0
    6.9467   -2.9780   27.2476 H   0  0  0  0  0  0
    8.2408   -5.0640   27.7778 H   0  0  0  0  0  0
   10.7605   -4.4525   24.5647 H   0  0  0  0  0  0
    8.1540   -4.5394   22.0975 H   0  0  0  0  0  0
    6.3283   -5.9968   22.7865 H   0  0  0  0  0  0
  1  2  1  0  0  0
  1 40  1  0  0  0
  1 41  1  0  0  0
  1 42  1  0  0  0
  2  3  1  0  0  0
  2  4  1  0  0  0
  2  5  1  0  0  0
  3 43  1  0  0  0
  3 44  1  0  0  0
  3 45  1  0  0  0
  4 46  1  0  0  0
  4 47  1  0  0  0
  4 48  1  0  0  0
  5 39  2  0  0  0
  5  6  1  0  0  0
  6  7  2  0  0  0
  6 49  1  0  0  0
  7  8  1  0  0  0
  7 50  1  0  0  0
  8  9  1  0  0  0
  8 38  2  0  0  0
  9 10  1  0  0  0
  9 19  1  0  0  0
 10 11  2  0  0  0
 10 12  1  0  0  0
 12 18  2  0  0  0
 12 13  1  0  0  0
 13 14  2  0  0  0
 13 51  1  0  0  0
 14 15  1  0  0  0
 14 17  1  0  0  0
 15 16  1  0  0  0
 15 52  1  0  0  0
 15 53  1  0  0  0
 16 54  1  0  0  0
 17 18  1  0  0  0
 17 55  1  0  0  0
 19 20  1  0  0  0
 19 32  1  0  0  0
 19 56  1  0  0  0
 20 21  2  0  0  0
 20 22  1  0  0  0
 22 23  1  0  0  0
 22 57  1  0  0  0
 23 24  1  0  0  0
 23 58  1  0  0  0
 23 59  1  0  0  0
 24 25  1  0  0  0
 24 60  1  0  0  0
 24 61  1  0  0  0
 25 31  2  0  0  0
 25 26  1  0  0  0
 26 27  2  0  0  0
 26 62  1  0  0  0
 27 28  1  0  0  0
 27 63  1  0  0  0
 28 29  2  0  0  0
 28 64  1  0  0  0
 29 30  1  0  0  0
 29 31  1  0  0  0
 31 65  1  0  0  0
 32 37  2  0  0  0
 32 33  1  0  0  0
 33 34  2  0  0  0
 33 66  1  0  0  0
 34 35  1  0  0  0
 34 67  1  0  0  0
 35 36  2  0  0  0
 35 68  1  0  0  0
 36 37  1  0  0  0
 37 69  1  0  0  0
 38 39  1  0  0  0
 38 70  1  0  0  0
 39 71  1  0  0  0
M  END
> <r_i_docking_score>
-8.37960754937819

$$$$
ligprep_5.maegz:192
                    3D
 Schrodinger Suite 2020-4.
 66 69  0  0  1  0            999 V2000
    8.2253    4.9769   24.5872 C   0  0  0  0  0  0
    7.1575    4.7833   23.4872 C   0  0  0  0  0  0
    5.8656    5.5332   23.9097 C   0  0  0  0  0  0
    7.6535    5.4662   22.1817 C   0  0  0  0  0  0
    6.9189    3.2633   23.2858 C   0  0  0  0  0  0
    7.7748    2.5194   22.4615 C   0  0  0  0  0  0
    7.5928    1.1519   22.2936 C   0  0  0  0  0  0
    6.5263    0.4968   22.9273 C   0  0  0  0  0  0
    6.3065   -0.8962   22.7118 N   0  0  0  0  0  0
    6.0657   -1.3731   21.4355 C   0  0  0  0  0  0
    6.0246   -2.5792   21.1743 O   0  0  0  0  0  0
    5.8808   -0.4338   20.3299 C   0  0  0  0  0  0
    5.2107    0.8001   20.2640 C   0  0  0  0  0  0
    5.1672    1.4039   19.0940 N   0  0  0  0  0  0
    5.7415    0.6792   18.1735 C   0  0  0  0  0  0
    6.3611   -0.8484   18.7079 S   0  0  0  0  0  0
    6.4541   -1.8870   23.8502 C   0  0  1  0  0  0
    7.2940   -1.4349   25.0841 C   0  0  0  0  0  0
    6.9029   -1.6092   26.2400 O   0  0  0  0  0  0
    8.4260   -0.7930   24.7904 N   0  0  0  0  0  0
    9.2345   -0.0359   25.7293 C   0  0  0  0  0  0
    9.9864    1.0952   25.0056 C   0  0  0  0  0  0
   11.0934    0.6780   24.0232 C   0  0  0  0  0  0
   11.2323   -0.6405   23.5528 C   0  0  0  0  0  0
   12.2697   -0.9862   22.6923 C   0  0  0  0  0  0
   13.1927   -0.0218   22.3054 C   0  0  0  0  0  0
   13.0533    1.2962   22.7247 C   0  0  0  0  0  0
   13.9419    2.2272   22.3067 F   0  0  0  0  0  0
   12.0025    1.6460   23.5747 C   0  0  0  0  0  0
    5.1721   -2.6273   24.2051 C   0  0  0  0  0  0
    4.9516   -3.9240   23.7211 C   0  0  0  0  0  0
    3.8276   -4.6453   24.1260 C   0  0  0  0  0  0
    2.9438   -4.0469   25.0248 C   0  0  0  0  0  0
    3.1248   -2.7926   25.5086 N   0  0  0  0  0  0
    4.2253   -2.1091   25.1041 C   0  0  0  0  0  0
    5.6825    1.2205   23.7743 C   0  0  0  0  0  0
    5.8815    2.5875   23.9508 C   0  0  0  0  0  0
    8.4327    6.0337   24.7642 H   0  0  0  0  0  0
    9.1713    4.5017   24.3205 H   0  0  0  0  0  0
    7.9031    4.5456   25.5360 H   0  0  0  0  0  0
    5.0523    5.3549   23.2029 H   0  0  0  0  0  0
    5.5217    5.2427   24.9027 H   0  0  0  0  0  0
    6.0251    6.6118   23.9505 H   0  0  0  0  0  0
    7.0020    5.2373   21.3362 H   0  0  0  0  0  0
    7.6822    6.5528   22.2750 H   0  0  0  0  0  0
    8.6677    5.1700   21.9128 H   0  0  0  0  0  0
    8.6014    2.9889   21.9512 H   0  0  0  0  0  0
    8.2675    0.6045   21.6504 H   0  0  0  0  0  0
    4.7358    1.2966   21.0969 H   0  0  0  0  0  0
    5.8046    0.9783   17.1363 H   0  0  0  0  0  0
    7.1491   -2.6350   23.4638 H   0  0  0  0  0  0
    8.6748   -0.7022   23.8127 H   0  0  0  0  0  0
    8.6722    0.3494   26.5825 H   0  0  0  0  0  0
    9.9661   -0.7189   26.1624 H   0  0  0  0  0  0
    9.2707    1.7239   24.4813 H   0  0  0  0  0  0
   10.3776    1.7578   25.7698 H   0  0  0  0  0  0
   10.5803   -1.4413   23.8607 H   0  0  0  0  0  0
   12.3736   -2.0040   22.3476 H   0  0  0  0  0  0
   13.9930   -0.2859   21.6322 H   0  0  0  0  0  0
   11.9120    2.6698   23.9035 H   0  0  0  0  0  0
    5.6627   -4.3810   23.0478 H   0  0  0  0  0  0
    3.6561   -5.6476   23.7617 H   0  0  0  0  0  0
    2.0653   -4.5709   25.3702 H   0  0  0  0  0  0
    4.3535   -1.1296   25.5380 H   0  0  0  0  0  0
    4.8582    0.7316   24.2709 H   0  0  0  0  0  0
    5.2062    3.1086   24.6096 H   0  0  0  0  0  0
  1  2  1  0  0  0
  1 38  1  0  0  0
  1 39  1  0  0  0
  1 40  1  0  0  0
  2  3  1  0  0  0
  2  4  1  0  0  0
  2  5  1  0  0  0
  3 41  1  0  0  0
  3 42  1  0  0  0
  3 43  1  0  0  0
  4 44  1  0  0  0
  4 45  1  0  0  0
  4 46  1  0  0  0
  5 37  2  0  0  0
  5  6  1  0  0  0
  6  7  2  0  0  0
  6 47  1  0  0  0
  7  8  1  0  0  0
  7 48  1  0  0  0
  8  9  1  0  0  0
  8 36  2  0  0  0
  9 10  1  0  0  0
  9 17  1  0  0  0
 10 11  2  0  0  0
 10 12  1  0  0  0
 12 16  1  0  0  0
 12 13  2  0  0  0
 13 14  1  0  0  0
 13 49  1  0  0  0
 14 15  2  0  0  0
 15 16  1  0  0  0
 15 50  1  0  0  0
 17 18  1  0  0  0
 17 30  1  0  0  0
 17 51  1  0  0  0
 18 19  2  0  0  0
 18 20  1  0  0  0
 20 21  1  0  0  0
 20 52  1  0  0  0
 21 22  1  0  0  0
 21 53  1  0  0  0
 21 54  1  0  0  0
 22 23  1  0  0  0
 22 55  1  0  0  0
 22 56  1  0  0  0
 23 29  2  0  0  0
 23 24  1  0  0  0
 24 25  2  0  0  0
 24 57  1  0  0  0
 25 26  1  0  0  0
 25 58  1  0  0  0
 26 27  2  0  0  0
 26 59  1  0  0  0
 27 28  1  0  0  0
 27 29  1  0  0  0
 29 60  1  0  0  0
 30 35  2  0  0  0
 30 31  1  0  0  0
 31 32  2  0  0  0
 31 61  1  0  0  0
 32 33  1  0  0  0
 32 62  1  0  0  0
 33 34  2  0  0  0
 33 63  1  0  0  0
 34 35  1  0  0  0
 35 64  1  0  0  0
 36 37  1  0  0  0
 36 65  1  0  0  0
 37 66  1  0  0  0
M  END
> <r_i_docking_score>
-4.96176396161641

$$$$
ligprep_5.maegz:193
                    3D
 Schrodinger Suite 2020-4.
 69 72  0  0  1  0            999 V2000
    5.5119    1.1525   18.0362 C   0  0  0  0  0  0
    6.2201    0.4017   19.0627 N   0  0  3  0  0  0
    7.5521    0.3452   19.1022 N   0  0  0  0  0  0
    7.7512   -0.5086   20.0718 C   0  0  0  0  0  0
    6.5363   -0.9236   20.6395 C   0  0  0  0  0  0
    6.3347   -1.8976   21.6962 C   0  0  0  0  0  0
    5.5694   -2.8413   21.4608 O   0  0  0  0  0  0
    6.9698   -1.7213   22.9085 N   0  0  0  0  0  0
    6.6339   -2.6449   23.9411 C   0  0  0  0  0  0
    7.2032   -3.9231   23.9756 C   0  0  0  0  0  0
    6.8918   -4.7999   25.0140 C   0  0  0  0  0  0
    5.9788   -4.4386   26.0175 C   0  0  0  0  0  0
    5.6660   -5.4299   27.1724 C   0  0  0  0  0  0
    4.9465   -6.6779   26.6091 C   0  0  0  0  0  0
    4.7456   -4.8241   28.2666 C   0  0  0  0  0  0
    6.9745   -5.8717   27.8792 C   0  0  0  0  0  0
    5.3546   -3.1852   25.9244 C   0  0  0  0  0  0
    5.6690   -2.3051   24.8940 C   0  0  0  0  0  0
    7.8644   -0.5430   23.2052 C   0  0  1  0  0  0
    7.5483    0.2501   24.4974 C   0  0  0  0  0  0
    8.3371    0.2563   25.4433 O   0  0  0  0  0  0
    6.3931    0.9355   24.4904 N   0  0  0  0  0  0
    5.9619    1.8265   25.5677 C   0  0  0  0  0  0
    6.8278    3.1058   25.7244 C   0  0  0  0  0  0
    7.0744    3.9415   24.4643 C   0  0  0  0  0  0
    6.1260    4.0259   23.4363 C   0  0  0  0  0  0
    6.3745    4.8076   22.3078 C   0  0  0  0  0  0
    7.5679    5.5209   22.1983 C   0  0  0  0  0  0
    8.5147    5.4521   23.2187 C   0  0  0  0  0  0
    9.6683    6.1527   23.1206 F   0  0  0  0  0  0
    8.2680    4.6660   24.3459 C   0  0  0  0  0  0
    9.3300   -0.9255   23.0794 C   0  0  0  0  0  0
   10.1910   -0.1196   22.3214 C   0  0  0  0  0  0
   11.5166   -0.5024   22.1266 C   0  0  0  0  0  0
   11.9603   -1.6865   22.7081 C   0  0  0  0  0  0
   11.1722   -2.4465   23.5079 N   0  0  0  0  0  0
    9.8906   -2.0528   23.6962 C   0  0  0  0  0  0
    5.5692   -0.3738   19.9370 N   0  0  0  0  0  0
    4.9860    1.9914   18.4950 H   0  0  0  0  0  0
    6.2075    1.5454   17.2934 H   0  0  0  0  0  0
    4.7965    0.5025   17.5322 H   0  0  0  0  0  0
    8.7392   -0.8591   20.3259 H   0  0  0  0  0  0
    7.9087   -4.2286   23.2157 H   0  0  0  0  0  0
    7.3739   -5.7661   25.0367 H   0  0  0  0  0  0
    4.6771   -7.3756   27.4046 H   0  0  0  0  0  0
    5.5689   -7.2300   25.9057 H   0  0  0  0  0  0
    4.0255   -6.4084   26.0878 H   0  0  0  0  0  0
    5.1725   -3.9206   28.7039 H   0  0  0  0  0  0
    3.7597   -4.5717   27.8742 H   0  0  0  0  0  0
    4.5811   -5.5255   29.0863 H   0  0  0  0  0  0
    7.5256   -5.0218   28.2844 H   0  0  0  0  0  0
    6.7687   -6.5450   28.7123 H   0  0  0  0  0  0
    7.6446   -6.4199   27.2141 H   0  0  0  0  0  0
    4.6182   -2.8659   26.6443 H   0  0  0  0  0  0
    5.1591   -1.3558   24.8469 H   0  0  0  0  0  0
    7.6941    0.2227   22.4506 H   0  0  0  0  0  0
    5.7982    0.8784   23.6747 H   0  0  0  0  0  0
    4.9474    2.1140   25.2883 H   0  0  0  0  0  0
    5.9032    1.2772   26.5100 H   0  0  0  0  0  0
    6.3851    3.7525   26.4821 H   0  0  0  0  0  0
    7.7957    2.8018   26.1285 H   0  0  0  0  0  0
    5.1912    3.4903   23.4970 H   0  0  0  0  0  0
    5.6440    4.8621   21.5123 H   0  0  0  0  0  0
    7.7579    6.1233   21.3210 H   0  0  0  0  0  0
    9.0114    4.6228   25.1278 H   0  0  0  0  0  0
    9.8269    0.7856   21.8570 H   0  0  0  0  0  0
   12.1739    0.0908   21.5102 H   0  0  0  0  0  0
   12.9706   -2.0360   22.5605 H   0  0  0  0  0  0
    9.3268   -2.6650   24.3772 H   0  0  0  0  0  0
  1  2  1  0  0  0
  1 39  1  0  0  0
  1 40  1  0  0  0
  1 41  1  0  0  0
  2 38  1  0  0  0
  2  3  1  0  0  0
  3  4  2  0  0  0
  4  5  1  0  0  0
  4 42  1  0  0  0
  5  6  1  0  0  0
  5 38  2  0  0  0
  6  7  2  0  0  0
  6  8  1  0  0  0
  8  9  1  0  0  0
  8 19  1  0  0  0
  9 18  2  0  0  0
  9 10  1  0  0  0
 10 11  2  0  0  0
 10 43  1  0  0  0
 11 12  1  0  0  0
 11 44  1  0  0  0
 12 13  1  0  0  0
 12 17  2  0  0  0
 13 14  1  0  0  0
 13 15  1  0  0  0
 13 16  1  0  0  0
 14 45  1  0  0  0
 14 46  1  0  0  0
 14 47  1  0  0  0
 15 48  1  0  0  0
 15 49  1  0  0  0
 15 50  1  0  0  0
 16 51  1  0  0  0
 16 52  1  0  0  0
 16 53  1  0  0  0
 17 18  1  0  0  0
 17 54  1  0  0  0
 18 55  1  0  0  0
 19 20  1  0  0  0
 19 32  1  0  0  0
 19 56  1  0  0  0
 20 21  2  0  0  0
 20 22  1  0  0  0
 22 23  1  0  0  0
 22 57  1  0  0  0
 23 24  1  0  0  0
 23 58  1  0  0  0
 23 59  1  0  0  0
 24 25  1  0  0  0
 24 60  1  0  0  0
 24 61  1  0  0  0
 25 31  2  0  0  0
 25 26  1  0  0  0
 26 27  2  0  0  0
 26 62  1  0  0  0
 27 28  1  0  0  0
 27 63  1  0  0  0
 28 29  2  0  0  0
 28 64  1  0  0  0
 29 30  1  0  0  0
 29 31  1  0  0  0
 31 65  1  0  0  0
 32 37  2  0  0  0
 32 33  1  0  0  0
 33 34  2  0  0  0
 33 66  1  0  0  0
 34 35  1  0  0  0
 34 67  1  0  0  0
 35 36  2  0  0  0
 35 68  1  0  0  0
 36 37  1  0  0  0
 37 69  1  0  0  0
M  END
> <r_i_docking_score>
-3.35996084188034

$$$$
ligprep_5.maegz:194
                    3D
 Schrodinger Suite 2020-4.
 66 69  0  0  1  0            999 V2000
    9.3255    4.8257   22.8384 C   0  0  0  0  0  0
   10.1028    3.5252   23.1921 C   0  0  0  0  0  0
   11.3860    3.4515   22.3142 C   0  0  0  0  0  0
   10.5355    3.6413   24.6586 C   0  0  0  0  0  0
    9.2346    2.2531   23.0423 C   0  0  0  0  0  0
    7.8324    2.3257   23.0453 C   0  0  0  0  0  0
    7.0601    1.1750   22.9520 C   0  0  0  0  0  0
    7.6848   -0.0702   22.8615 C   0  0  0  0  0  0
    6.8972   -1.2339   22.7573 N   0  0  0  0  0  0
    6.2901   -1.6141   21.5809 C   0  0  0  0  0  0
    5.5700   -2.6174   21.5046 O   0  0  0  0  0  0
    6.4477   -0.8052   20.3768 C   0  0  0  0  0  0
    7.3689    0.1327   19.9074 C   0  0  0  0  0  0
    7.0472    0.5748   18.7089 N   0  0  0  0  0  0
    5.9696   -0.1016   18.4070 C   0  0  0  0  0  0
    5.5705   -0.9829   19.3594 O   0  0  0  0  0  0
    6.7097   -2.0790   23.9751 C   0  0  1  0  0  0
    7.9164   -3.0257   24.2185 C   0  0  0  0  0  0
    8.3720   -3.6558   23.2655 O   0  0  0  0  0  0
    8.3459   -3.2022   25.4790 N   0  0  0  0  0  0
    9.2298   -4.2865   25.8966 C   0  0  0  0  0  0
    8.5144   -5.6537   25.8672 C   0  0  0  0  0  0
    7.1497   -5.6529   26.5532 C   0  0  0  0  0  0
    5.9699   -5.6460   25.7998 C   0  0  0  0  0  0
    4.7282   -5.6484   26.4366 C   0  0  0  0  0  0
    4.6598   -5.6552   27.8306 C   0  0  0  0  0  0
    5.8324   -5.6556   28.5851 C   0  0  0  0  0  0
    5.7725   -5.6554   29.9355 F   0  0  0  0  0  0
    7.0704   -5.6528   27.9463 C   0  0  0  0  0  0
    6.2568   -1.2501   25.1734 C   0  0  0  0  0  0
    4.9063   -1.2626   25.5432 C   0  0  0  0  0  0
    4.4763   -0.5285   26.6499 C   0  0  0  0  0  0
    5.4193    0.2092   27.3657 C   0  0  0  0  0  0
    6.7326    0.2498   27.0296 N   0  0  0  0  0  0
    7.1306   -0.4678   25.9491 C   0  0  0  0  0  0
    9.0776   -0.1656   22.8635 C   0  0  0  0  0  0
    9.8438    0.9910   22.9580 C   0  0  0  0  0  0
    9.9879    5.6869   22.7371 H   0  0  0  0  0  0
    8.5958    5.0875   23.6061 H   0  0  0  0  0  0
    8.7689    4.7293   21.9080 H   0  0  0  0  0  0
   12.1142    2.7401   22.7046 H   0  0  0  0  0  0
   11.1696    3.1470   21.2951 H   0  0  0  0  0  0
   11.9002    4.4125   22.2650 H   0  0  0  0  0  0
   11.0822    2.7534   24.9837 H   0  0  0  0  0  0
   11.1845    4.5090   24.7906 H   0  0  0  0  0  0
    9.6701    3.7542   25.3158 H   0  0  0  0  0  0
    7.3150    3.2690   23.1282 H   0  0  0  0  0  0
    5.9813    1.2488   22.9518 H   0  0  0  0  0  0
    8.2505    0.5009   20.4062 H   0  0  0  0  0  0
    5.3713   -0.0554   17.5095 H   0  0  0  0  0  0
    5.9162   -2.8069   23.8016 H   0  0  0  0  0  0
    7.9038   -2.6672   26.2130 H   0  0  0  0  0  0
   10.1432   -4.2959   25.2973 H   0  0  0  0  0  0
    9.4906   -4.0439   26.9278 H   0  0  0  0  0  0
    8.3914   -5.9725   24.8307 H   0  0  0  0  0  0
    9.1521   -6.4192   26.3093 H   0  0  0  0  0  0
    6.0148   -5.6385   24.7201 H   0  0  0  0  0  0
    3.8218   -5.6464   25.8492 H   0  0  0  0  0  0
    3.7021   -5.6608   28.3289 H   0  0  0  0  0  0
    7.9699   -5.6568   28.5378 H   0  0  0  0  0  0
    4.1908   -1.8382   24.9738 H   0  0  0  0  0  0
    3.4372   -0.5334   26.9444 H   0  0  0  0  0  0
    5.1272    0.7889   28.2289 H   0  0  0  0  0  0
    8.1817   -0.3983   25.7065 H   0  0  0  0  0  0
    9.5662   -1.1273   22.7859 H   0  0  0  0  0  0
   10.9183    0.8906   22.9739 H   0  0  0  0  0  0
  1  2  1  0  0  0
  1 38  1  0  0  0
  1 39  1  0  0  0
  1 40  1  0  0  0
  2  3  1  0  0  0
  2  4  1  0  0  0
  2  5  1  0  0  0
  3 41  1  0  0  0
  3 42  1  0  0  0
  3 43  1  0  0  0
  4 44  1  0  0  0
  4 45  1  0  0  0
  4 46  1  0  0  0
  5 37  2  0  0  0
  5  6  1  0  0  0
  6  7  2  0  0  0
  6 47  1  0  0  0
  7  8  1  0  0  0
  7 48  1  0  0  0
  8  9  1  0  0  0
  8 36  2  0  0  0
  9 10  1  0  0  0
  9 17  1  0  0  0
 10 11  2  0  0  0
 10 12  1  0  0  0
 12 16  1  0  0  0
 12 13  2  0  0  0
 13 14  1  0  0  0
 13 49  1  0  0  0
 14 15  2  0  0  0
 15 16  1  0  0  0
 15 50  1  0  0  0
 17 18  1  0  0  0
 17 30  1  0  0  0
 17 51  1  0  0  0
 18 19  2  0  0  0
 18 20  1  0  0  0
 20 21  1  0  0  0
 20 52  1  0  0  0
 21 22  1  0  0  0
 21 53  1  0  0  0
 21 54  1  0  0  0
 22 23  1  0  0  0
 22 55  1  0  0  0
 22 56  1  0  0  0
 23 29  2  0  0  0
 23 24  1  0  0  0
 24 25  2  0  0  0
 24 57  1  0  0  0
 25 26  1  0  0  0
 25 58  1  0  0  0
 26 27  2  0  0  0
 26 59  1  0  0  0
 27 28  1  0  0  0
 27 29  1  0  0  0
 29 60  1  0  0  0
 30 35  2  0  0  0
 30 31  1  0  0  0
 31 32  2  0  0  0
 31 61  1  0  0  0
 32 33  1  0  0  0
 32 62  1  0  0  0
 33 34  2  0  0  0
 33 63  1  0  0  0
 34 35  1  0  0  0
 35 64  1  0  0  0
 36 37  1  0  0  0
 36 65  1  0  0  0
 37 66  1  0  0  0
M  END
> <r_i_docking_score>
-1.98771863822572

$$$$
ligprep_5.maegz:195
                    3D
 Schrodinger Suite 2020-4.
 68 71  0  0  1  0            999 V2000
    8.1792    4.5075   25.7176 C   0  0  0  0  0  0
    6.8440    3.7338   25.6165 C   0  0  0  0  0  0
    6.5361    3.1715   27.0312 C   0  0  0  0  0  0
    5.7129    4.7219   25.2490 C   0  0  0  0  0  0
    6.9379    2.6346   24.5254 C   0  0  0  0  0  0
    7.2702    2.9844   23.2098 C   0  0  0  0  0  0
    7.3320    2.0222   22.2042 C   0  0  0  0  0  0
    7.0068    0.6823   22.4752 C   0  0  0  0  0  0
    7.0502   -0.3281   21.4569 N   0  0  0  0  0  0
    6.6151   -0.1050   20.1615 C   0  0  0  0  0  0
    6.9557   -0.8445   19.2345 O   0  0  0  0  0  0
    5.6645    0.9638   19.8492 C   0  0  0  0  0  0
    5.4001    1.4012   18.6188 C   0  0  0  0  0  0
    4.3834    2.2742   18.7120 N   0  0  0  0  0  0
    3.9317    2.3470   19.9769 C   0  0  0  0  0  0
    2.9594    2.9660   20.4058 O   0  0  0  0  0  0
    4.7673    1.5471   20.6651 N   0  0  0  0  0  0
    7.7739   -1.6314   21.7291 C   0  0  1  0  0  0
    9.0960   -1.4939   22.5412 C   0  0  0  0  0  0
    9.2443   -2.1155   23.5946 O   0  0  0  0  0  0
   10.0325   -0.6614   22.0515 N   0  0  0  0  0  0
   11.3427   -0.4864   22.6822 C   0  0  0  0  0  0
   11.3822    0.6011   23.7826 C   0  0  0  0  0  0
   11.7311    2.0002   23.2938 C   0  0  0  0  0  0
   12.9771    2.2452   22.7078 C   0  0  0  0  0  0
   13.3351    3.5379   22.3268 C   0  0  0  0  0  0
   12.4550    4.5975   22.5384 C   0  0  0  0  0  0
   11.2130    4.3616   23.1272 C   0  0  0  0  0  0
   10.3695    5.3956   23.3445 F   0  0  0  0  0  0
   10.8488    3.0659   23.4979 C   0  0  0  0  0  0
    6.8620   -2.7805   22.1812 C   0  0  0  0  0  0
    5.5223   -2.6252   22.5691 C   0  0  0  0  0  0
    4.7696   -3.7317   22.9709 C   0  0  0  0  0  0
    5.3618   -4.9925   22.9412 C   0  0  0  0  0  0
    6.6418   -5.1871   22.5488 N   0  0  0  0  0  0
    7.3579   -4.0944   22.1866 C   0  0  0  0  0  0
    6.7342    0.3236   23.8009 C   0  0  0  0  0  0
    6.6933    1.2825   24.8068 C   0  0  0  0  0  0
    8.1526    5.2504   26.5160 H   0  0  0  0  0  0
    8.4063    5.0494   24.7989 H   0  0  0  0  0  0
    9.0168    3.8397   25.9247 H   0  0  0  0  0  0
    5.5729    2.6593   27.0636 H   0  0  0  0  0  0
    7.3031    2.4696   27.3623 H   0  0  0  0  0  0
    6.4933    3.9673   27.7754 H   0  0  0  0  0  0
    4.7484    4.2175   25.1774 H   0  0  0  0  0  0
    5.6114    5.5112   25.9965 H   0  0  0  0  0  0
    5.8908    5.2140   24.2930 H   0  0  0  0  0  0
    7.4841    4.0118   22.9528 H   0  0  0  0  0  0
    7.6078    2.3396   21.2092 H   0  0  0  0  0  0
    5.8212    1.1686   17.6501 H   0  0  0  0  0  0
    3.9772    2.7665   17.9251 H   0  0  0  0  0  0
    4.5949    1.2519   21.6169 H   0  0  0  0  0  0
    8.1678   -1.9967   20.7808 H   0  0  0  0  0  0
    9.8629   -0.1826   21.1789 H   0  0  0  0  0  0
   11.7004   -1.4306   23.1051 H   0  0  0  0  0  0
   12.0841   -0.2825   21.9091 H   0  0  0  0  0  0
   10.4541    0.5966   24.3617 H   0  0  0  0  0  0
   12.1496    0.3456   24.5166 H   0  0  0  0  0  0
   13.6801    1.4383   22.5623 H   0  0  0  0  0  0
   14.3134    3.7190   21.9080 H   0  0  0  0  0  0
   12.7365    5.6003   22.2553 H   0  0  0  0  0  0
    9.8917    2.8939   23.9653 H   0  0  0  0  0  0
    5.0594   -1.6522   22.5780 H   0  0  0  0  0  0
    3.7507   -3.6238   23.3079 H   0  0  0  0  0  0
    4.8138   -5.8745   23.2404 H   0  0  0  0  0  0
    8.3702   -4.2973   21.8932 H   0  0  0  0  0  0
    6.5466   -0.7006   24.0762 H   0  0  0  0  0  0
    6.4606    0.9464   25.8039 H   0  0  0  0  0  0
  1  2  1  0  0  0
  1 39  1  0  0  0
  1 40  1  0  0  0
  1 41  1  0  0  0
  2  3  1  0  0  0
  2  4  1  0  0  0
  2  5  1  0  0  0
  3 42  1  0  0  0
  3 43  1  0  0  0
  3 44  1  0  0  0
  4 45  1  0  0  0
  4 46  1  0  0  0
  4 47  1  0  0  0
  5 38  2  0  0  0
  5  6  1  0  0  0
  6  7  2  0  0  0
  6 48  1  0  0  0
  7  8  1  0  0  0
  7 49  1  0  0  0
  8  9  1  0  0  0
  8 37  2  0  0  0
  9 10  1  0  0  0
  9 18  1  0  0  0
 10 11  2  0  0  0
 10 12  1  0  0  0
 12 17  1  0  0  0
 12 13  2  0  0  0
 13 14  1  0  0  0
 13 50  1  0  0  0
 14 15  1  0  0  0
 14 51  1  0  0  0
 15 16  2  0  0  0
 15 17  1  0  0  0
 17 52  1  0  0  0
 18 19  1  0  0  0
 18 31  1  0  0  0
 18 53  1  0  0  0
 19 20  2  0  0  0
 19 21  1  0  0  0
 21 22  1  0  0  0
 21 54  1  0  0  0
 22 23  1  0  0  0
 22 55  1  0  0  0
 22 56  1  0  0  0
 23 24  1  0  0  0
 23 57  1  0  0  0
 23 58  1  0  0  0
 24 30  2  0  0  0
 24 25  1  0  0  0
 25 26  2  0  0  0
 25 59  1  0  0  0
 26 27  1  0  0  0
 26 60  1  0  0  0
 27 28  2  0  0  0
 27 61  1  0  0  0
 28 29  1  0  0  0
 28 30  1  0  0  0
 30 62  1  0  0  0
 31 36  2  0  0  0
 31 32  1  0  0  0
 32 33  2  0  0  0
 32 63  1  0  0  0
 33 34  1  0  0  0
 33 64  1  0  0  0
 34 35  2  0  0  0
 34 65  1  0  0  0
 35 36  1  0  0  0
 36 66  1  0  0  0
 37 38  1  0  0  0
 37 67  1  0  0  0
 38 68  1  0  0  0
M  END
> <r_i_docking_score>
-6.00440251535872

$$$$
ligprep_5.maegz:196
                    3D
 Schrodinger Suite 2020-4.
 69 72  0  0  1  0            999 V2000
    5.1696    1.0497   17.9858 C   0  0  0  0  0  0
    5.9768    0.3771   18.9845 N   0  0  0  0  0  0
    7.3252    0.2938   19.0982 C   0  0  0  0  0  0
    7.6427   -0.4852   20.0947 N   0  0  0  0  0  0
    6.4651   -0.8935   20.5661 C   0  0  0  0  0  0
    6.3010   -1.8783   21.6201 C   0  0  0  0  0  0
    5.5679   -2.8474   21.3813 O   0  0  0  0  0  0
    6.9247   -1.6926   22.8359 N   0  0  0  0  0  0
    6.5842   -2.6121   23.8680 C   0  0  0  0  0  0
    5.5902   -2.2811   24.7952 C   0  0  0  0  0  0
    5.2748   -3.1560   25.8293 C   0  0  0  0  0  0
    5.9312   -4.3921   25.9511 C   0  0  0  0  0  0
    5.6506   -5.3591   27.1331 C   0  0  0  0  0  0
    6.9819   -5.7364   27.8336 C   0  0  0  0  0  0
    4.9487   -6.6413   26.6199 C   0  0  0  0  0  0
    4.7374   -4.7394   28.2263 C   0  0  0  0  0  0
    6.8640   -4.7473   24.9645 C   0  0  0  0  0  0
    7.1764   -3.8793   23.9225 C   0  0  0  0  0  0
    7.8570   -0.5466   23.1288 C   0  0  1  0  0  0
    7.5693    0.2400   24.4308 C   0  0  0  0  0  0
    8.3694    0.2267   25.3704 O   0  0  0  0  0  0
    6.4245    0.9398   24.4465 N   0  0  0  0  0  0
    6.0161    1.8141   25.5439 C   0  0  0  0  0  0
    6.8904    3.0858   25.7048 C   0  0  0  0  0  0
    7.1191    3.9429   24.4557 C   0  0  0  0  0  0
    6.1776    4.0112   23.4175 C   0  0  0  0  0  0
    6.4108    4.8177   22.3048 C   0  0  0  0  0  0
    7.5788    5.5742   22.2164 C   0  0  0  0  0  0
    8.5195    5.5189   23.2447 C   0  0  0  0  0  0
    9.6498    6.2576   23.1658 F   0  0  0  0  0  0
    8.2901    4.7075   24.3578 C   0  0  0  0  0  0
    9.3057   -0.9910   22.9890 C   0  0  0  0  0  0
    9.8540   -2.0528   23.7201 C   0  0  0  0  0  0
   11.1688   -2.4526   23.4921 C   0  0  0  0  0  0
   11.9359   -1.7347   22.5751 C   0  0  0  0  0  0
   11.4571   -0.6586   21.9080 N   0  0  0  0  0  0
   10.1619   -0.3106   22.1142 C   0  0  0  0  0  0
    5.4247   -0.4023   19.9093 N   0  0  0  0  0  0
    5.7771    1.7556   17.4214 H   0  0  0  0  0  0
    4.7721    0.3107   17.2938 H   0  0  0  0  0  0
    4.3516    1.5877   18.4668 H   0  0  0  0  0  0
    7.9701    0.7744   18.3808 H   0  0  0  0  0  0
    5.0726   -1.3338   24.7318 H   0  0  0  0  0  0
    4.5229   -2.8431   26.5352 H   0  0  0  0  0  0
    6.8185   -6.4194   28.6699 H   0  0  0  0  0  0
    7.4868   -4.8545   28.2285 H   0  0  0  0  0  0
    7.6826   -6.2319   27.1618 H   0  0  0  0  0  0
    4.0282   -6.4030   26.0857 H   0  0  0  0  0  0
    5.5698   -7.2327   25.9511 H   0  0  0  0  0  0
    4.6808   -7.2990   27.4470 H   0  0  0  0  0  0
    3.7411   -4.5142   27.8440 H   0  0  0  0  0  0
    4.6006   -5.4212   29.0682 H   0  0  0  0  0  0
    5.1574   -3.8194   28.6318 H   0  0  0  0  0  0
    7.3740   -5.6960   25.0085 H   0  0  0  0  0  0
    7.9079   -4.1708   23.1798 H   0  0  0  0  0  0
    7.7064    0.2384   22.3904 H   0  0  0  0  0  0
    5.8222    0.9040   23.6351 H   0  0  0  0  0  0
    4.9990    2.1100   25.2857 H   0  0  0  0  0  0
    5.9734    1.2475   26.4770 H   0  0  0  0  0  0
    6.4657    3.7211   26.4817 H   0  0  0  0  0  0
    7.8624    2.7732   26.0874 H   0  0  0  0  0  0
    5.2600    3.4447   23.4589 H   0  0  0  0  0  0
    5.6802    4.8608   21.5084 H   0  0  0  0  0  0
    7.7542    6.1986   21.3485 H   0  0  0  0  0  0
    9.0312    4.6762   25.1451 H   0  0  0  0  0  0
    9.2746   -2.5710   24.4624 H   0  0  0  0  0  0
   11.5735   -3.3104   24.0042 H   0  0  0  0  0  0
   12.9567   -2.0184   22.3662 H   0  0  0  0  0  0
    9.8123    0.5397   21.5467 H   0  0  0  0  0  0
  1  2  1  0  0  0
  1 39  1  0  0  0
  1 40  1  0  0  0
  1 41  1  0  0  0
  2 38  1  0  0  0
  2  3  1  0  0  0
  3  4  2  0  0  0
  3 42  1  0  0  0
  4  5  1  0  0  0
  5  6  1  0  0  0
  5 38  2  0  0  0
  6  7  2  0  0  0
  6  8  1  0  0  0
  8  9  1  0  0  0
  8 19  1  0  0  0
  9 18  2  0  0  0
  9 10  1  0  0  0
 10 11  2  0  0  0
 10 43  1  0  0  0
 11 12  1  0  0  0
 11 44  1  0  0  0
 12 13  1  0  0  0
 12 17  2  0  0  0
 13 14  1  0  0  0
 13 15  1  0  0  0
 13 16  1  0  0  0
 14 45  1  0  0  0
 14 46  1  0  0  0
 14 47  1  0  0  0
 15 48  1  0  0  0
 15 49  1  0  0  0
 15 50  1  0  0  0
 16 51  1  0  0  0
 16 52  1  0  0  0
 16 53  1  0  0  0
 17 18  1  0  0  0
 17 54  1  0  0  0
 18 55  1  0  0  0
 19 20  1  0  0  0
 19 32  1  0  0  0
 19 56  1  0  0  0
 20 21  2  0  0  0
 20 22  1  0  0  0
 22 23  1  0  0  0
 22 57  1  0  0  0
 23 24  1  0  0  0
 23 58  1  0  0  0
 23 59  1  0  0  0
 24 25  1  0  0  0
 24 60  1  0  0  0
 24 61  1  0  0  0
 25 31  2  0  0  0
 25 26  1  0  0  0
 26 27  2  0  0  0
 26 62  1  0  0  0
 27 28  1  0  0  0
 27 63  1  0  0  0
 28 29  2  0  0  0
 28 64  1  0  0  0
 29 30  1  0  0  0
 29 31  1  0  0  0
 31 65  1  0  0  0
 32 37  2  0  0  0
 32 33  1  0  0  0
 33 34  2  0  0  0
 33 66  1  0  0  0
 34 35  1  0  0  0
 34 67  1  0  0  0
 35 36  2  0  0  0
 35 68  1  0  0  0
 36 37  1  0  0  0
 37 69  1  0  0  0
M  END
> <r_i_docking_score>
-3.4648222408902

$$$$
ligprep_5.maegz:197
                    3D
 Schrodinger Suite 2020-4.
 68 71  0  0  1  0            999 V2000
   12.3248    1.1940   22.9959 C   0  0  0  0  0  0
   10.8736    1.7181   23.1896 C   0  0  0  0  0  0
   10.7443    2.1066   24.6824 C   0  0  0  0  0  0
   10.6854    2.9809   22.3295 C   0  0  0  0  0  0
    9.8030    0.6740   22.7864 C   0  0  0  0  0  0
   10.0882   -0.3318   21.8523 C   0  0  0  0  0  0
    9.1314   -1.2791   21.5080 C   0  0  0  0  0  0
    7.8837   -1.2634   22.1368 C   0  0  0  0  0  0
    6.9491   -2.2963   21.8948 N   0  0  0  0  0  0
    6.1443   -2.2042   20.7788 C   0  0  0  0  0  0
    5.5696   -3.1927   20.3125 O   0  0  0  0  0  0
    6.0472   -0.9517   20.0417 C   0  0  0  0  0  0
    5.5699    0.2239   20.4859 C   0  0  0  0  0  0
    5.5205    1.1360   19.3692 C   0  0  0  0  0  0
    5.1521    2.3038   19.3519 O   0  0  0  0  0  0
    5.9704    0.4113   18.3395 N   0  0  0  0  0  0
    6.3695   -0.8453   18.7085 N   0  0  0  0  0  0
    7.0974   -3.6447   22.5786 C   0  0  1  0  0  0
    8.1898   -3.8260   23.6958 C   0  0  0  0  0  0
    9.2324   -3.1762   23.6884 O   0  0  0  0  0  0
    7.9587   -4.7435   24.6531 N   0  0  0  0  0  0
    8.7330   -4.8750   25.8851 C   0  0  0  0  0  0
    8.0620   -4.1159   27.0496 C   0  0  0  0  0  0
    7.5207   -2.7231   26.7080 C   0  0  0  0  0  0
    8.3697   -1.6121   26.7080 C   0  0  0  0  0  0
    7.8564   -0.3326   26.5010 C   0  0  0  0  0  0
    6.4905   -0.1545   26.2837 C   0  0  0  0  0  0
    5.6397   -1.2578   26.2684 C   0  0  0  0  0  0
    4.3169   -1.0872   26.0500 F   0  0  0  0  0  0
    6.1519   -2.5369   26.4841 C   0  0  0  0  0  0
    5.7675   -4.2672   23.0053 C   0  0  0  0  0  0
    5.5642   -5.6526   22.9157 C   0  0  0  0  0  0
    4.4310   -6.2272   23.4953 C   0  0  0  0  0  0
    3.5047   -5.3957   24.1208 C   0  0  0  0  0  0
    3.6610   -4.0528   24.1957 N   0  0  0  0  0  0
    4.7702   -3.5077   23.6326 C   0  0  0  0  0  0
    7.5617   -0.2397   23.0250 C   0  0  0  0  0  0
    8.5105    0.7305   23.3314 C   0  0  0  0  0  0
   13.0642    1.8951   23.3865 H   0  0  0  0  0  0
   12.5797    1.0468   21.9466 H   0  0  0  0  0  0
   12.4789    0.2448   23.5102 H   0  0  0  0  0  0
    9.8342    2.6661   24.8978 H   0  0  0  0  0  0
   10.7468    1.2211   25.3186 H   0  0  0  0  0  0
   11.5688    2.7466   24.9914 H   0  0  0  0  0  0
    9.7027    3.4299   22.4805 H   0  0  0  0  0  0
   11.4306    3.7444   22.5558 H   0  0  0  0  0  0
   10.7694    2.7472   21.2701 H   0  0  0  0  0  0
   11.0535   -0.4090   21.3782 H   0  0  0  0  0  0
    9.3852   -2.0578   20.8035 H   0  0  0  0  0  0
    5.2209    0.4613   21.4789 H   0  0  0  0  0  0
    6.2177    0.7024   17.4037 H   0  0  0  0  0  0
    6.1071   -1.4983   17.9830 H   0  0  0  0  0  0
    7.5182   -4.2707   21.7891 H   0  0  0  0  0  0
    7.1116   -5.2889   24.5892 H   0  0  0  0  0  0
    8.7846   -5.9416   26.1106 H   0  0  0  0  0  0
    9.7504   -4.5056   25.7326 H   0  0  0  0  0  0
    7.2364   -4.7202   27.4288 H   0  0  0  0  0  0
    8.7503   -4.0532   27.8936 H   0  0  0  0  0  0
    9.4244   -1.7259   26.9015 H   0  0  0  0  0  0
    8.5180    0.5210   26.5153 H   0  0  0  0  0  0
    6.0915    0.8355   26.1213 H   0  0  0  0  0  0
    5.4779   -3.3808   26.4890 H   0  0  0  0  0  0
    6.3054   -6.2872   22.4500 H   0  0  0  0  0  0
    4.2788   -7.2947   23.4799 H   0  0  0  0  0  0
    2.6180   -5.8036   24.5843 H   0  0  0  0  0  0
    4.8781   -2.4381   23.7441 H   0  0  0  0  0  0
    6.5866   -0.2053   23.4882 H   0  0  0  0  0  0
    8.2281    1.5097   24.0209 H   0  0  0  0  0  0
  1  2  1  0  0  0
  1 39  1  0  0  0
  1 40  1  0  0  0
  1 41  1  0  0  0
  2  3  1  0  0  0
  2  4  1  0  0  0
  2  5  1  0  0  0
  3 42  1  0  0  0
  3 43  1  0  0  0
  3 44  1  0  0  0
  4 45  1  0  0  0
  4 46  1  0  0  0
  4 47  1  0  0  0
  5 38  2  0  0  0
  5  6  1  0  0  0
  6  7  2  0  0  0
  6 48  1  0  0  0
  7  8  1  0  0  0
  7 49  1  0  0  0
  8  9  1  0  0  0
  8 37  2  0  0  0
  9 10  1  0  0  0
  9 18  1  0  0  0
 10 11  2  0  0  0
 10 12  1  0  0  0
 12 17  1  0  0  0
 12 13  2  0  0  0
 13 14  1  0  0  0
 13 50  1  0  0  0
 14 15  2  0  0  0
 14 16  1  0  0  0
 16 17  1  0  0  0
 16 51  1  0  0  0
 17 52  1  0  0  0
 18 19  1  0  0  0
 18 31  1  0  0  0
 18 53  1  0  0  0
 19 20  2  0  0  0
 19 21  1  0  0  0
 21 22  1  0  0  0
 21 54  1  0  0  0
 22 23  1  0  0  0
 22 55  1  0  0  0
 22 56  1  0  0  0
 23 24  1  0  0  0
 23 57  1  0  0  0
 23 58  1  0  0  0
 24 30  2  0  0  0
 24 25  1  0  0  0
 25 26  2  0  0  0
 25 59  1  0  0  0
 26 27  1  0  0  0
 26 60  1  0  0  0
 27 28  2  0  0  0
 27 61  1  0  0  0
 28 29  1  0  0  0
 28 30  1  0  0  0
 30 62  1  0  0  0
 31 36  2  0  0  0
 31 32  1  0  0  0
 32 33  2  0  0  0
 32 63  1  0  0  0
 33 34  1  0  0  0
 33 64  1  0  0  0
 34 35  2  0  0  0
 34 65  1  0  0  0
 35 36  1  0  0  0
 36 66  1  0  0  0
 37 38  1  0  0  0
 37 67  1  0  0  0
 38 68  1  0  0  0
M  END
> <r_i_docking_score>
-4.7760136549555

$$$$
ligprep_5.maegz:198
                    3D
 Schrodinger Suite 2020-4.
 39 40  0  0  1  0            999 V2000
   12.4450   -2.4473   22.1372 C   0  0  0  0  0  0
   12.0856   -1.0832   22.7067 C   0  0  0  0  0  0
   12.9318    0.0019   22.4486 C   0  0  0  0  0  0
   12.6149    1.2491   22.9853 C   0  0  0  0  0  0
   11.5180    1.4621   23.7483 N   0  0  0  0  0  0
   10.6989    0.4078   23.9927 C   0  0  0  0  0  0
   10.9378   -0.8917   23.5031 C   0  0  0  0  0  0
   10.0900   -1.9938   23.7590 N   0  0  0  0  0  0
    9.1692   -2.1543   24.7376 C   0  0  0  0  0  0
    8.8889   -1.3021   25.5801 O   0  0  0  0  0  0
    8.4870   -3.5354   24.8397 C   0  0  0  0  0  0
    7.9407   -3.9921   23.5492 N   0  0  2  0  0  0
    6.7680   -3.1967   23.1334 C   0  0  0  0  0  0
    6.1870   -3.6852   21.7906 C   0  0  0  0  0  0
    5.8297   -5.1836   21.8100 C   0  0  0  0  0  0
    4.6076   -5.4900   22.7003 C   0  0  0  0  0  0
    7.0923   -5.9492   22.2527 C   0  0  0  0  0  0
    7.6392   -5.4326   23.6022 C   0  0  0  0  0  0
   12.5994   -3.1580   22.9493 H   0  0  0  0  0  0
   11.6322   -2.8225   21.5143 H   0  0  0  0  0  0
   13.3497   -2.4175   21.5285 H   0  0  0  0  0  0
   13.8168   -0.1127   21.8400 H   0  0  0  0  0  0
   13.2490    2.1063   22.8051 H   0  0  0  0  0  0
    9.8340    0.6477   24.5910 H   0  0  0  0  0  0
   10.2274   -2.7964   23.1595 H   0  0  0  0  0  0
    9.2523   -4.2272   25.1984 H   0  0  0  0  0  0
    7.7079   -3.5101   25.6046 H   0  0  0  0  0  0
    6.0047   -3.2298   23.9130 H   0  0  0  0  0  0
    7.0547   -2.1491   23.0359 H   0  0  0  0  0  0
    5.3034   -3.0924   21.5551 H   0  0  0  0  0  0
    6.9011   -3.4623   21.0015 H   0  0  0  0  0  0
    5.6015   -5.4860   20.7865 H   0  0  0  0  0  0
    4.7617   -5.2002   23.7383 H   0  0  0  0  0  0
    3.7215   -4.9656   22.3464 H   0  0  0  0  0  0
    4.3739   -6.5536   22.6915 H   0  0  0  0  0  0
    7.8769   -5.8835   21.4979 H   0  0  0  0  0  0
    6.8652   -7.0119   22.3469 H   0  0  0  0  0  0
    8.5405   -5.9866   23.8663 H   0  0  0  0  0  0
    6.9307   -5.6314   24.4084 H   0  0  0  0  0  0
  1  2  1  0  0  0
  1 19  1  0  0  0
  1 20  1  0  0  0
  1 21  1  0  0  0
  2  7  2  0  0  0
  2  3  1  0  0  0
  3  4  2  0  0  0
  3 22  1  0  0  0
  4  5  1  0  0  0
  4 23  1  0  0  0
  5  6  2  0  0  0
  6  7  1  0  0  0
  6 24  1  0  0  0
  7  8  1  0  0  0
  8  9  1  0  0  0
  8 25  1  0  0  0
  9 10  2  0  0  0
  9 11  1  0  0  0
 11 12  1  0  0  0
 11 26  1  0  0  0
 11 27  1  0  0  0
 12 18  1  0  0  0
 12 13  1  0  0  0
 13 14  1  0  0  0
 13 28  1  0  0  0
 13 29  1  0  0  0
 14 15  1  0  0  0
 14 30  1  0  0  0
 14 31  1  0  0  0
 15 16  1  0  0  0
 15 17  1  0  0  0
 15 32  1  0  0  0
 16 33  1  0  0  0
 16 34  1  0  0  0
 16 35  1  0  0  0
 17 18  1  0  0  0
 17 36  1  0  0  0
 17 37  1  0  0  0
 18 38  1  0  0  0
 18 39  1  0  0  0
M  END
> <r_i_docking_score>
-4.88329208449638

$$$$
ligprep_5.maegz:199
                    3D
 Schrodinger Suite 2020-4.
 36 39  0  0  1  0            999 V2000
    8.1094   -2.3294   26.1392 O   0  0  0  0  0  0
    8.6240   -2.9965   25.2380 C   0  0  0  0  0  0
    9.4661   -2.4937   24.3070 N   0  0  0  0  0  0
    9.9681   -1.1758   24.1805 C   0  0  0  0  0  0
    9.3662   -0.0572   24.7883 C   0  0  0  0  0  0
    9.8491    1.2032   24.7160 N   0  0  0  0  0  0
   10.9858    1.3949   24.0210 C   0  0  0  0  0  0
   11.6905    0.3770   23.3465 C   0  0  0  0  0  0
   12.8808    0.6323   22.6306 C   0  0  0  0  0  0
   13.5052   -0.3983   21.9365 C   0  0  0  0  0  0
   12.9841   -1.6852   21.9468 C   0  0  0  0  0  0
   11.8365   -1.9724   22.6812 C   0  0  0  0  0  0
   11.1542   -0.9478   23.4020 C   0  0  0  0  0  0
    8.3499   -4.5123   25.1473 C   0  0  1  0  0  0
    7.7546   -5.0931   26.4552 C   0  0  0  0  0  0
    6.3640   -5.3209   26.2201 O   0  0  0  0  0  0
    6.1674   -5.2873   24.8650 C   0  0  0  0  0  0
    4.9844   -5.6659   24.2382 C   0  0  0  0  0  0
    4.9356   -5.6487   22.8425 C   0  0  0  0  0  0
    6.0479   -5.2295   22.1049 C   0  0  0  0  0  0
    5.9698   -5.2394   20.3802 Cl  0  0  0  0  0  0
    7.2165   -4.8143   22.7576 C   0  0  0  0  0  0
    7.2720   -4.8523   24.1541 C   0  0  0  0  0  0
    9.8332   -3.1525   23.6377 H   0  0  0  0  0  0
    8.4539   -0.1339   25.3550 H   0  0  0  0  0  0
   11.3560    2.4087   23.9960 H   0  0  0  0  0  0
   13.2816    1.6347   22.5920 H   0  0  0  0  0  0
   14.3686   -0.1727   21.3327 H   0  0  0  0  0  0
   13.4703   -2.4665   21.3818 H   0  0  0  0  0  0
   11.4581   -2.9818   22.6845 H   0  0  0  0  0  0
    9.2957   -5.0025   24.9232 H   0  0  0  0  0  0
    7.9044   -4.4972   27.3576 H   0  0  0  0  0  0
    8.2255   -6.0561   26.6526 H   0  0  0  0  0  0
    4.1318   -5.9995   24.8101 H   0  0  0  0  0  0
    4.0449   -5.9749   22.3234 H   0  0  0  0  0  0
    8.0669   -4.4895   22.1775 H   0  0  0  0  0  0
  1  2  2  0  0  0
  2  3  1  0  0  0
  2 14  1  0  0  0
  3  4  1  0  0  0
  3 24  1  0  0  0
  4 13  2  0  0  0
  4  5  1  0  0  0
  5  6  2  0  0  0
  5 25  1  0  0  0
  6  7  1  0  0  0
  7  8  2  0  0  0
  7 26  1  0  0  0
  8 13  1  0  0  0
  8  9  1  0  0  0
  9 10  2  0  0  0
  9 27  1  0  0  0
 10 11  1  0  0  0
 10 28  1  0  0  0
 11 12  2  0  0  0
 11 29  1  0  0  0
 12 13  1  0  0  0
 12 30  1  0  0  0
 14 15  1  0  0  0
 14 23  1  0  0  0
 14 31  1  0  0  0
 15 16  1  0  0  0
 15 32  1  0  0  0
 15 33  1  0  0  0
 16 17  1  0  0  0
 17 23  2  0  0  0
 17 18  1  0  0  0
 18 19  2  0  0  0
 18 34  1  0  0  0
 19 20  1  0  0  0
 19 35  1  0  0  0
 20 21  1  0  0  0
 20 22  2  0  0  0
 22 23  1  0  0  0
 22 36  1  0  0  0
M  END
> <r_i_docking_score>
-6.71902714390813

$$$$
ligprep_5.maegz:200
                    3D
 Schrodinger Suite 2020-4.
 44 46  0  0  1  0            999 V2000
    9.8851    2.9181   24.4705 C   0  0  0  0  0  0
   10.2814    2.8288   22.9808 C   0  0  1  0  0  0
   11.8166    2.7702   22.7924 C   0  0  0  0  0  0
   12.3694    3.5988   21.9086 N   0  0  0  0  0  0
   12.5067    1.9835   23.4374 O   0  0  0  0  0  0
    9.5638    1.6567   22.3009 C   0  0  0  0  0  0
    8.4542    1.8969   21.4814 C   0  0  0  0  0  0
    7.7718    0.8364   20.8805 C   0  0  0  0  0  0
    6.4201    1.1455   19.8544 Cl  0  0  0  0  0  0
    8.1833   -0.4766   21.1088 C   0  0  0  0  0  0
    9.2723   -0.7373   21.9457 C   0  0  0  0  0  0
    9.6879   -2.1736   22.2509 C   0  0  0  0  0  0
    9.1999   -2.6193   23.6371 C   0  0  0  0  0  0
    9.5624   -1.9944   24.6348 O   0  0  0  0  0  0
    8.3715   -3.6853   23.6610 N   0  0  0  0  0  0
    7.7676   -4.2995   24.7798 C   0  0  0  0  0  0
    8.3455   -4.2743   26.0608 C   0  0  0  0  0  0
    7.8070   -4.8722   27.1480 N   0  0  0  0  0  0
    6.6438   -5.5337   26.9819 C   0  0  0  0  0  0
    5.9581   -5.6522   25.7557 C   0  0  0  0  0  0
    4.7519   -6.3828   25.6280 C   0  0  0  0  0  0
    4.1292   -6.4907   24.3868 C   0  0  0  0  0  0
    4.6808   -5.8821   23.2650 C   0  0  0  0  0  0
    5.8628   -5.1517   23.3628 C   0  0  0  0  0  0
    6.5396   -5.0217   24.6100 C   0  0  0  0  0  0
    9.9499    0.3299   22.5415 C   0  0  0  0  0  0
   10.2125    2.0408   25.0312 H   0  0  0  0  0  0
   10.3174    3.8001   24.9402 H   0  0  0  0  0  0
    8.8033    2.9916   24.5879 H   0  0  0  0  0  0
    9.9333    3.7496   22.5113 H   0  0  0  0  0  0
   11.7830    4.1768   21.3177 H   0  0  0  0  0  0
   13.3740    3.5949   21.7960 H   0  0  0  0  0  0
    8.1184    2.9088   21.3014 H   0  0  0  0  0  0
    7.6482   -1.2925   20.6449 H   0  0  0  0  0  0
    9.3099   -2.8416   21.4759 H   0  0  0  0  0  0
   10.7743   -2.2604   22.2214 H   0  0  0  0  0  0
    8.1310   -4.0850   22.7680 H   0  0  0  0  0  0
    9.2862   -3.7785   26.2511 H   0  0  0  0  0  0
    6.2432   -6.0154   27.8633 H   0  0  0  0  0  0
    4.3204   -6.8602   26.4971 H   0  0  0  0  0  0
    3.2117   -7.0549   24.2913 H   0  0  0  0  0  0
    4.1836   -5.9803   22.3082 H   0  0  0  0  0  0
    6.2652   -4.6843   22.4763 H   0  0  0  0  0  0
   10.7697    0.1187   23.2154 H   0  0  0  0  0  0
  1  2  1  0  0  0
  1 27  1  0  0  0
  1 28  1  0  0  0
  1 29  1  0  0  0
  2  3  1  0  0  0
  2  6  1  0  0  0
  2 30  1  0  0  0
  3  4  1  0  0  0
  3  5  2  0  0  0
  4 31  1  0  0  0
  4 32  1  0  0  0
  6 26  2  0  0  0
  6  7  1  0  0  0
  7  8  2  0  0  0
  7 33  1  0  0  0
  8  9  1  0  0  0
  8 10  1  0  0  0
 10 11  2  0  0  0
 10 34  1  0  0  0
 11 12  1  0  0  0
 11 26  1  0  0  0
 12 13  1  0  0  0
 12 35  1  0  0  0
 12 36  1  0  0  0
 13 14  2  0  0  0
 13 15  1  0  0  0
 15 16  1  0  0  0
 15 37  1  0  0  0
 16 25  2  0  0  0
 16 17  1  0  0  0
 17 18  2  0  0  0
 17 38  1  0  0  0
 18 19  1  0  0  0
 19 20  2  0  0  0
 19 39  1  0  0  0
 20 25  1  0  0  0
 20 21  1  0  0  0
 21 22  2  0  0  0
 21 40  1  0  0  0
 22 23  1  0  0  0
 22 41  1  0  0  0
 23 24  2  0  0  0
 23 42  1  0  0  0
 24 25  1  0  0  0
 24 43  1  0  0  0
 26 44  1  0  0  0
M  END
> <r_i_docking_score>
-6.0937188794173

$$$$
ligprep_5.maegz:201
                    3D
 Schrodinger Suite 2020-4.
 39 42  0  0  1  0            999 V2000
    7.7978   -1.9108   23.1346 O   0  0  0  0  0  0
    8.8113   -1.3480   22.7293 C   0  0  0  0  0  0
    8.8477   -0.7949   21.2880 C   0  0  0  0  0  0
    7.6770    0.1120   20.8980 C   0  0  0  0  0  0
    7.1267    0.0064   19.6188 C   0  0  0  0  0  0
    6.1283    0.8863   19.2045 C   0  0  0  0  0  0
    5.4891    0.7500   17.6100 Cl  0  0  0  0  0  0
    5.6745    1.8909   20.0627 C   0  0  0  0  0  0
    6.2243    2.0265   21.3432 C   0  0  0  0  0  0
    5.7835    3.1114   22.2745 C   0  0  0  0  0  0
    5.8402    3.0517   23.5863 N   0  0  0  0  0  0
    5.3578    4.2721   24.0497 N   0  0  0  0  0  0
    5.0183    5.0836   22.9849 N   0  0  0  0  0  0
    5.2904    4.3437   21.9079 N   0  0  0  0  0  0
    7.2197    1.1279   21.7487 C   0  0  0  0  0  0
    9.8895   -1.2397   23.5340 N   0  0  0  0  0  0
   11.1043   -0.6417   23.1712 C   0  0  0  0  0  0
   12.1396   -1.4552   22.7052 C   0  0  0  0  0  0
   13.3362   -0.9787   22.2853 N   0  0  0  0  0  0
   13.5179    0.3606   22.3080 C   0  0  0  0  0  0
   12.5525    1.2941   22.7429 C   0  0  0  0  0  0
   12.7700    2.6932   22.7078 C   0  0  0  0  0  0
   11.7739    3.5653   23.1356 C   0  0  0  0  0  0
   10.5700    3.0734   23.6314 C   0  0  0  0  0  0
   10.3320    1.7026   23.6834 C   0  0  0  0  0  0
   11.3064    0.7772   23.2155 C   0  0  0  0  0  0
    8.9062   -1.6522   20.6158 H   0  0  0  0  0  0
    9.7567   -0.2267   21.1067 H   0  0  0  0  0  0
    7.4818   -0.7497   18.9312 H   0  0  0  0  0  0
    4.9089    2.5730   19.7210 H   0  0  0  0  0  0
    5.1696    4.6950   20.9522 H   0  0  0  0  0  0
    7.6507    1.2331   22.7311 H   0  0  0  0  0  0
    9.8606   -1.7446   24.4070 H   0  0  0  0  0  0
   12.0134   -2.5278   22.6411 H   0  0  0  0  0  0
   14.4646    0.7222   21.9361 H   0  0  0  0  0  0
   13.7103    3.0774   22.3385 H   0  0  0  0  0  0
   11.9361    4.6326   23.0902 H   0  0  0  0  0  0
    9.8108    3.7630   23.9724 H   0  0  0  0  0  0
    9.3948    1.3362   24.0751 H   0  0  0  0  0  0
  1  2  2  0  0  0
  2  3  1  0  0  0
  2 16  1  0  0  0
  3  4  1  0  0  0
  3 27  1  0  0  0
  3 28  1  0  0  0
  4 15  2  0  0  0
  4  5  1  0  0  0
  5  6  2  0  0  0
  5 29  1  0  0  0
  6  7  1  0  0  0
  6  8  1  0  0  0
  8  9  2  0  0  0
  8 30  1  0  0  0
  9 10  1  0  0  0
  9 15  1  0  0  0
 10 14  1  0  0  0
 10 11  2  0  0  0
 11 12  1  0  0  0
 12 13  2  0  0  0
 13 14  1  0  0  0
 14 31  1  0  0  0
 15 32  1  0  0  0
 16 17  1  0  0  0
 16 33  1  0  0  0
 17 26  2  0  0  0
 17 18  1  0  0  0
 18 19  2  0  0  0
 18 34  1  0  0  0
 19 20  1  0  0  0
 20 21  2  0  0  0
 20 35  1  0  0  0
 21 26  1  0  0  0
 21 22  1  0  0  0
 22 23  2  0  0  0
 22 36  1  0  0  0
 23 24  1  0  0  0
 23 37  1  0  0  0
 24 25  2  0  0  0
 24 38  1  0  0  0
 25 26  1  0  0  0
 25 39  1  0  0  0
M  END
> <r_i_docking_score>
-5.78831374043667

$$$$
ligprep_5.maegz:202
                    3D
 Schrodinger Suite 2020-4.
 40 43  0  0  1  0            999 V2000
    9.0442    1.9474   21.5431 O   0  0  0  0  0  0
    8.6206    1.6753   22.6733 C   0  0  0  0  0  0
    7.3126    1.5161   22.9686 N   0  0  0  0  0  0
    6.2724    1.7648   22.0680 C   0  0  0  0  0  0
    5.3114    2.7096   22.4416 C   0  0  0  0  0  0
    4.3243    3.1460   21.6270 N   0  0  0  0  0  0
    4.2842    2.6326   20.3775 C   0  0  0  0  0  0
    5.1696    1.6443   19.8890 C   0  0  0  0  0  0
    5.1029    1.1480   18.5739 C   0  0  0  0  0  0
    5.9696    0.1541   18.1451 C   0  0  0  0  0  0
    6.9112   -0.3774   19.0121 C   0  0  0  0  0  0
    7.0205    0.1018   20.3127 C   0  0  0  0  0  0
    6.1750    1.1541   20.7744 C   0  0  0  0  0  0
    9.5787    1.5905   23.8811 C   0  0  2  0  0  0
    9.4888    2.9103   24.6779 C   0  0  0  0  0  0
   10.1775    4.0842   23.9467 C   0  0  0  0  0  0
   11.5679    3.7529   23.6301 N   0  0  0  0  0  0
   11.9110    2.4349   23.2662 C   0  0  0  0  0  0
   13.1697    2.2316   22.7065 C   0  0  0  0  0  0
   13.5698    0.9588   22.3080 C   0  0  0  0  0  0
   12.7005   -0.1163   22.4504 C   0  0  0  0  0  0
   13.1716   -1.6813   21.9066 Cl  0  0  0  0  0  0
   11.4352    0.0819   22.9972 C   0  0  0  0  0  0
   11.0159    1.3526   23.4138 C   0  0  0  0  0  0
    7.0592    1.4654   23.9439 H   0  0  0  0  0  0
    5.3490    3.1881   23.4098 H   0  0  0  0  0  0
    3.5285    3.0405   19.7215 H   0  0  0  0  0  0
    4.3697    1.5606   17.9079 H   0  0  0  0  0  0
    5.9139   -0.2059   17.1260 H   0  0  0  0  0  0
    7.5763   -1.1487   18.6556 H   0  0  0  0  0  0
    7.7710   -0.3180   20.9651 H   0  0  0  0  0  0
    9.2119    0.7611   24.4875 H   0  0  0  0  0  0
    9.9694    2.7486   25.6383 H   0  0  0  0  0  0
    8.4560    3.1828   24.9058 H   0  0  0  0  0  0
   10.1225    5.0180   24.5077 H   0  0  0  0  0  0
    9.7009    4.2589   22.9809 H   0  0  0  0  0  0
   12.0991    4.5155   23.2343 H   0  0  0  0  0  0
   13.8542    3.0591   22.5806 H   0  0  0  0  0  0
   14.5486    0.8162   21.8762 H   0  0  0  0  0  0
   10.7590   -0.7583   23.0686 H   0  0  0  0  0  0
  1  2  2  0  0  0
  2  3  1  0  0  0
  2 14  1  0  0  0
  3  4  1  0  0  0
  3 25  1  0  0  0
  4 13  2  0  0  0
  4  5  1  0  0  0
  5  6  2  0  0  0
  5 26  1  0  0  0
  6  7  1  0  0  0
  7  8  2  0  0  0
  7 27  1  0  0  0
  8 13  1  0  0  0
  8  9  1  0  0  0
  9 10  2  0  0  0
  9 28  1  0  0  0
 10 11  1  0  0  0
 10 29  1  0  0  0
 11 12  2  0  0  0
 11 30  1  0  0  0
 12 13  1  0  0  0
 12 31  1  0  0  0
 14 15  1  0  0  0
 14 24  1  0  0  0
 14 32  1  0  0  0
 15 16  1  0  0  0
 15 33  1  0  0  0
 15 34  1  0  0  0
 16 17  1  0  0  0
 16 35  1  0  0  0
 16 36  1  0  0  0
 17 18  1  0  0  0
 17 37  1  0  0  0
 18 24  2  0  0  0
 18 19  1  0  0  0
 19 20  2  0  0  0
 19 38  1  0  0  0
 20 21  1  0  0  0
 20 39  1  0  0  0
 21 22  1  0  0  0
 21 23  2  0  0  0
 23 24  1  0  0  0
 23 40  1  0  0  0
M  END
> <r_i_docking_score>
-6.67792472843465

$$$$
ligprep_5.maegz:203
                    3D
 Schrodinger Suite 2020-4.
 67 71  0  0  1  0            999 V2000
    6.7095   -2.1485   21.6613 O   0  0  0  0  0  0
    7.7966   -1.6646   21.9859 C   0  0  0  0  0  0
    8.6628   -2.3368   22.7598 N   0  0  0  0  0  0
    8.4329   -3.6539   23.3605 C   0  0  0  0  0  0
    7.3091   -3.6900   24.4326 C   0  0  0  0  0  0
    7.2862   -2.5405   25.4429 C   0  0  0  0  0  0
    8.4366   -1.8002   25.7405 C   0  0  0  0  0  0
    8.3632   -0.6790   26.5590 C   0  0  0  0  0  0
    7.1492   -0.3099   27.1307 C   0  0  0  0  0  0
    6.0087   -1.0760   26.8949 C   0  0  0  0  0  0
    4.8311   -0.7299   27.4626 F   0  0  0  0  0  0
    6.0768   -2.1866   26.0524 C   0  0  0  0  0  0
    8.2009   -0.2036   21.5619 C   0  0  1  0  0  0
    7.1804    0.3793   20.5485 C   0  0  0  0  0  0
    6.4905    1.6004   20.6654 C   0  0  0  0  0  0
    5.5193    1.9719   19.7376 C   0  0  0  0  0  0
    5.2894    1.1446   18.6468 C   0  0  0  0  0  0
    5.9844    0.0039   18.4397 N   0  0  0  0  0  0
    6.9131   -0.3407   19.3678 C   0  0  0  0  0  0
    8.5130    0.6251   22.7937 N   0  0  0  0  0  0
    9.7884    0.7756   23.3273 C   0  0  0  0  0  0
   10.0054    1.4724   24.3289 O   0  0  0  0  0  0
   10.9818    0.1090   22.8033 C   0  0  0  0  0  0
   11.2876   -0.9398   21.9164 C   0  0  0  0  0  0
   12.5746   -1.2575   21.9046 N   0  0  0  0  0  0
   13.1466   -0.3685   22.6657 C   0  0  0  0  0  0
   12.2359    0.4606   23.2479 N   0  0  0  0  0  0
    7.4560    1.3107   23.4857 C   0  0  0  0  0  0
    7.5340    2.6955   23.7364 C   0  0  0  0  0  0
    6.4828    3.3689   24.3478 C   0  0  0  0  0  0
    5.3210    2.6871   24.6927 C   0  0  0  0  0  0
    4.3038    3.4330   25.2523 O   0  0  0  0  0  0
    2.9491    3.0647   24.9846 C   0  0  2  0  0  0
    2.6012    3.2109   23.5027 C   0  0  0  0  0  0
    1.5669    4.3316   23.4483 C   0  0  0  0  0  0
    1.0073    4.3618   24.7524 O   0  0  0  0  0  0
    2.0506    4.0887   25.6831 C   0  0  0  0  0  0
    5.2365    1.3081   24.4634 C   0  0  0  0  0  0
    6.2948    0.6272   23.8673 C   0  0  0  0  0  0
    9.5302   -1.8805   23.0026 H   0  0  0  0  0  0
    9.3797   -3.8968   23.8418 H   0  0  0  0  0  0
    8.2442   -4.3805   22.5660 H   0  0  0  0  0  0
    7.3400   -4.6378   24.9709 H   0  0  0  0  0  0
    6.3556   -3.6797   23.9023 H   0  0  0  0  0  0
    9.3903   -2.0528   25.3036 H   0  0  0  0  0  0
    9.2514   -0.0899   26.7163 H   0  0  0  0  0  0
    7.0941    0.5646   27.7616 H   0  0  0  0  0  0
    5.1776   -2.7500   25.8514 H   0  0  0  0  0  0
    9.1090   -0.2742   20.9708 H   0  0  0  0  0  0
    6.6610    2.3076   21.4494 H   0  0  0  0  0  0
    4.9802    2.9042   19.8453 H   0  0  0  0  0  0
    4.5501    1.4086   17.9064 H   0  0  0  0  0  0
    7.4418   -1.2529   19.1538 H   0  0  0  0  0  0
   10.6229   -1.5390   21.3159 H   0  0  0  0  0  0
   14.1989   -0.2733   22.8856 H   0  0  0  0  0  0
   12.4331    1.2033   23.9037 H   0  0  0  0  0  0
    8.4043    3.2608   23.4333 H   0  0  0  0  0  0
    6.5537    4.4335   24.5193 H   0  0  0  0  0  0
    2.7340    2.0743   25.3874 H   0  0  0  0  0  0
    3.4604    3.4899   22.8899 H   0  0  0  0  0  0
    2.1941    2.2851   23.0979 H   0  0  0  0  0  0
    2.0053    5.3053   23.2164 H   0  0  0  0  0  0
    0.7925    4.1652   22.6990 H   0  0  0  0  0  0
    1.6326    3.7157   26.6183 H   0  0  0  0  0  0
    2.5634    5.0223   25.9247 H   0  0  0  0  0  0
    4.3548    0.7483   24.7323 H   0  0  0  0  0  0
    6.1845   -0.4324   23.6985 H   0  0  0  0  0  0
  1  2  2  0  0  0
  2  3  1  0  0  0
  2 13  1  0  0  0
  3  4  1  0  0  0
  3 40  1  0  0  0
  4  5  1  0  0  0
  4 41  1  0  0  0
  4 42  1  0  0  0
  5  6  1  0  0  0
  5 43  1  0  0  0
  5 44  1  0  0  0
  6 12  2  0  0  0
  6  7  1  0  0  0
  7  8  2  0  0  0
  7 45  1  0  0  0
  8  9  1  0  0  0
  8 46  1  0  0  0
  9 10  2  0  0  0
  9 47  1  0  0  0
 10 11  1  0  0  0
 10 12  1  0  0  0
 12 48  1  0  0  0
 13 14  1  0  0  0
 13 20  1  0  0  0
 13 49  1  0  0  0
 14 19  2  0  0  0
 14 15  1  0  0  0
 15 16  2  0  0  0
 15 50  1  0  0  0
 16 17  1  0  0  0
 16 51  1  0  0  0
 17 18  2  0  0  0
 17 52  1  0  0  0
 18 19  1  0  0  0
 19 53  1  0  0  0
 20 21  1  0  0  0
 20 28  1  0  0  0
 21 22  2  0  0  0
 21 23  1  0  0  0
 23 27  1  0  0  0
 23 24  2  0  0  0
 24 25  1  0  0  0
 24 54  1  0  0  0
 25 26  2  0  0  0
 26 27  1  0  0  0
 26 55  1  0  0  0
 27 56  1  0  0  0
 28 39  2  0  0  0
 28 29  1  0  0  0
 29 30  2  0  0  0
 29 57  1  0  0  0
 30 31  1  0  0  0
 30 58  1  0  0  0
 31 32  1  0  0  0
 31 38  2  0  0  0
 32 33  1  0  0  0
 33 37  1  0  0  0
 33 34  1  0  0  0
 33 59  1  0  0  0
 34 35  1  0  0  0
 34 60  1  0  0  0
 34 61  1  0  0  0
 35 36  1  0  0  0
 35 62  1  0  0  0
 35 63  1  0  0  0
 36 37  1  0  0  0
 37 64  1  0  0  0
 37 65  1  0  0  0
 38 39  1  0  0  0
 38 66  1  0  0  0
 39 67  1  0  0  0
M  END
> <r_i_docking_score>
-3.4824710388067

$$$$
ligprep_5.maegz:204
                    3D
 Schrodinger Suite 2020-4.
 40 43  0  0  1  0            999 V2000
    8.6090    1.1471   20.7080 O   0  0  0  0  0  0
    8.0675    0.9881   21.8029 C   0  0  0  0  0  0
    8.7131    1.2800   22.9559 N   0  0  0  0  0  0
   10.0611    1.6659   22.9946 C   0  0  0  0  0  0
   10.3754    3.0098   23.2129 C   0  0  0  0  0  0
   11.6361    3.5018   23.1783 N   0  0  0  0  0  0
   12.6364    2.6305   22.9163 C   0  0  0  0  0  0
   12.4619    1.2436   22.7080 C   0  0  0  0  0  0
   13.5392    0.3676   22.4341 C   0  0  0  0  0  0
   13.3015   -0.9892   22.2378 C   0  0  0  0  0  0
   12.0117   -1.5016   22.3080 C   0  0  0  0  0  0
   10.9318   -0.6621   22.5630 C   0  0  0  0  0  0
   11.1278    0.7350   22.7606 C   0  0  0  0  0  0
    6.6081    0.4251   21.8777 C   0  0  1  0  0  0
    5.9468    1.1327   22.9144 O   0  0  0  0  0  0
    5.8490    0.6625   20.5353 C   0  0  0  0  0  0
    6.1326   -0.4415   19.4976 C   0  0  0  0  0  0
    5.7444   -1.7103   20.0196 O   0  0  0  0  0  0
    6.2956   -2.0370   21.2424 C   0  0  0  0  0  0
    6.3705   -3.4047   21.5081 C   0  0  0  0  0  0
    6.8950   -3.8548   22.7163 C   0  0  0  0  0  0
    7.3176   -2.9340   23.6712 C   0  0  0  0  0  0
    7.9892   -3.4816   25.1645 Cl  0  0  0  0  0  0
    7.2063   -1.5677   23.4168 C   0  0  0  0  0  0
    6.7073   -1.0813   22.1952 C   0  0  0  0  0  0
    8.1512    1.3791   23.7907 H   0  0  0  0  0  0
    9.5938    3.7384   23.3720 H   0  0  0  0  0  0
   13.6287    3.0553   22.8759 H   0  0  0  0  0  0
   14.5395    0.7662   22.3615 H   0  0  0  0  0  0
   14.1264   -1.6528   22.0208 H   0  0  0  0  0  0
   11.8432   -2.5580   22.1461 H   0  0  0  0  0  0
    9.9349   -1.0761   22.5996 H   0  0  0  0  0  0
    5.0168    0.8716   22.8872 H   0  0  0  0  0  0
    6.0675    1.6472   20.1155 H   0  0  0  0  0  0
    4.7714    0.6653   20.7079 H   0  0  0  0  0  0
    7.1906   -0.4608   19.2305 H   0  0  0  0  0  0
    5.5734   -0.2549   18.5793 H   0  0  0  0  0  0
    6.0502   -4.1179   20.7641 H   0  0  0  0  0  0
    6.9765   -4.9145   22.9102 H   0  0  0  0  0  0
    7.5277   -0.8728   24.1793 H   0  0  0  0  0  0
  1  2  2  0  0  0
  2  3  1  0  0  0
  2 14  1  0  0  0
  3  4  1  0  0  0
  3 26  1  0  0  0
  4 13  2  0  0  0
  4  5  1  0  0  0
  5  6  2  0  0  0
  5 27  1  0  0  0
  6  7  1  0  0  0
  7  8  2  0  0  0
  7 28  1  0  0  0
  8 13  1  0  0  0
  8  9  1  0  0  0
  9 10  2  0  0  0
  9 29  1  0  0  0
 10 11  1  0  0  0
 10 30  1  0  0  0
 11 12  2  0  0  0
 11 31  1  0  0  0
 12 13  1  0  0  0
 12 32  1  0  0  0
 14 25  1  0  0  0
 14 15  1  0  0  0
 14 16  1  0  0  0
 15 33  1  0  0  0
 16 17  1  0  0  0
 16 34  1  0  0  0
 16 35  1  0  0  0
 17 18  1  0  0  0
 17 36  1  0  0  0
 17 37  1  0  0  0
 18 19  1  0  0  0
 19 25  2  0  0  0
 19 20  1  0  0  0
 20 21  2  0  0  0
 20 38  1  0  0  0
 21 22  1  0  0  0
 21 39  1  0  0  0
 22 23  1  0  0  0
 22 24  2  0  0  0
 24 25  1  0  0  0
 24 40  1  0  0  0
M  END
> <r_i_docking_score>
-6.96075933940471

$$$$
ligprep_5.maegz:205
                    3D
 Schrodinger Suite 2020-4.
 41 44  0  0  1  0            999 V2000
    9.5079    1.0833   25.3632 N   0  0  0  0  0  0
    9.9768    0.5778   24.0814 C   0  0  2  0  0  0
    8.7496    0.5645   23.1019 C   0  0  0  0  0  0
    8.2362   -0.5062   22.7619 O   0  0  0  0  0  0
    8.2306    1.7632   22.7547 N   0  0  0  0  0  0
    7.0697    2.0108   22.0034 C   0  0  0  0  0  0
    6.1918    2.9604   22.5350 C   0  0  0  0  0  0
    5.0247    3.3255   21.9601 N   0  0  0  0  0  0
    4.7072    2.7469   20.7833 C   0  0  0  0  0  0
    5.5084    1.7968   20.1149 C   0  0  0  0  0  0
    5.1403    1.2487   18.8653 C   0  0  0  0  0  0
    5.9685    0.3260   18.2405 C   0  0  0  0  0  0
    7.1698   -0.0536   18.8199 C   0  0  0  0  0  0
    7.5671    0.4843   20.0381 C   0  0  0  0  0  0
    6.7393    1.4099   20.7362 C   0  0  0  0  0  0
   10.5521   -0.8526   24.2600 C   0  0  0  0  0  0
   11.3271   -1.3174   23.0083 C   0  0  0  0  0  0
   12.4400   -0.4599   22.7569 O   0  0  0  0  0  0
   12.2044    0.8993   22.8377 C   0  0  0  0  0  0
   13.2249    1.6878   22.3080 C   0  0  0  0  0  0
   13.1575    3.0752   22.3903 C   0  0  0  0  0  0
   12.0742    3.6751   23.0248 C   0  0  0  0  0  0
   12.0059    5.3940   23.1707 Cl  0  0  0  0  0  0
   11.0568    2.8847   23.5614 C   0  0  0  0  0  0
   11.0898    1.4787   23.4877 C   0  0  0  0  0  0
    8.8717    0.4097   25.7663 H   0  0  0  0  0  0
   10.2683    1.1409   26.0298 H   0  0  0  0  0  0
    8.5922    2.5510   23.2685 H   0  0  0  0  0  0
    6.4062    3.4483   23.4745 H   0  0  0  0  0  0
    3.7859    3.0805   20.3282 H   0  0  0  0  0  0
    4.2171    1.5562   18.3951 H   0  0  0  0  0  0
    5.6833   -0.0908   17.2860 H   0  0  0  0  0  0
    7.8071   -0.7614   18.3079 H   0  0  0  0  0  0
    8.5190    0.1869   20.4438 H   0  0  0  0  0  0
    9.7741   -1.5756   24.5125 H   0  0  0  0  0  0
   11.2386   -0.8530   25.1063 H   0  0  0  0  0  0
   10.6790   -1.3378   22.1304 H   0  0  0  0  0  0
   11.6982   -2.3331   23.1524 H   0  0  0  0  0  0
   14.0781    1.2206   21.8392 H   0  0  0  0  0  0
   13.9546    3.6801   21.9844 H   0  0  0  0  0  0
   10.2340    3.3736   24.0627 H   0  0  0  0  0  0
  1  2  1  0  0  0
  1 26  1  0  0  0
  1 27  1  0  0  0
  2 25  1  0  0  0
  2  3  1  0  0  0
  2 16  1  0  0  0
  3  4  2  0  0  0
  3  5  1  0  0  0
  5  6  1  0  0  0
  5 28  1  0  0  0
  6 15  2  0  0  0
  6  7  1  0  0  0
  7  8  2  0  0  0
  7 29  1  0  0  0
  8  9  1  0  0  0
  9 10  2  0  0  0
  9 30  1  0  0  0
 10 15  1  0  0  0
 10 11  1  0  0  0
 11 12  2  0  0  0
 11 31  1  0  0  0
 12 13  1  0  0  0
 12 32  1  0  0  0
 13 14  2  0  0  0
 13 33  1  0  0  0
 14 15  1  0  0  0
 14 34  1  0  0  0
 16 17  1  0  0  0
 16 35  1  0  0  0
 16 36  1  0  0  0
 17 18  1  0  0  0
 17 37  1  0  0  0
 17 38  1  0  0  0
 18 19  1  0  0  0
 19 25  2  0  0  0
 19 20  1  0  0  0
 20 21  2  0  0  0
 20 39  1  0  0  0
 21 22  1  0  0  0
 21 40  1  0  0  0
 22 23  1  0  0  0
 22 24  2  0  0  0
 24 25  1  0  0  0
 24 41  1  0  0  0
M  END
> <r_i_docking_score>
-6.36160339052929

$$$$
ligprep_5.maegz:206
                    3D
 Schrodinger Suite 2020-4.
 40 43  0  0  1  0            999 V2000
   10.5172   -2.1525   23.9079 O   0  0  0  0  0  0
    9.7418   -1.1971   23.9388 C   0  0  0  0  0  0
   10.0871    0.0732   23.6298 N   0  0  0  0  0  0
   11.3213    0.5911   23.1810 C   0  0  0  0  0  0
   12.3708   -0.2175   22.7081 C   0  0  0  0  0  0
   13.5697    0.2557   22.3078 N   0  0  0  0  0  0
   13.7398    1.5926   22.3079 C   0  0  0  0  0  0
   12.7700    2.5295   22.7144 C   0  0  0  0  0  0
   13.0043    3.9261   22.6865 C   0  0  0  0  0  0
   12.0139    4.8058   23.1111 C   0  0  0  0  0  0
   10.7909    4.3242   23.5633 C   0  0  0  0  0  0
   10.5358    2.9551   23.6042 C   0  0  0  0  0  0
   11.5188    2.0157   23.1750 C   0  0  0  0  0  0
    8.2593   -1.4030   24.3552 C   0  0  2  0  0  0
    8.0769   -2.5924   25.3375 C   0  0  0  0  0  0
    8.0176   -3.9404   24.5911 C   0  0  0  0  0  0
    6.9200   -3.9416   23.6774 O   0  0  0  0  0  0
    6.8585   -2.8685   22.8020 C   0  0  0  0  0  0
    6.1301   -3.0835   21.6276 C   0  0  0  0  0  0
    5.5731   -4.3088   21.3743 O   0  0  0  0  0  0
    5.9703   -2.0513   20.7079 C   0  0  0  0  0  0
    6.5134   -0.7983   20.9667 C   0  0  0  0  0  0
    6.3227    0.4791   19.8221 Cl  0  0  0  0  0  0
    7.2202   -0.5783   22.1478 C   0  0  0  0  0  0
    7.4185   -1.6034   23.0856 C   0  0  0  0  0  0
    9.3651    0.7657   23.7459 H   0  0  0  0  0  0
   12.2895   -1.2910   22.6419 H   0  0  0  0  0  0
   14.6997    1.9436   21.9577 H   0  0  0  0  0  0
   13.9565    4.3028   22.3387 H   0  0  0  0  0  0
   12.1932    5.8706   23.0860 H   0  0  0  0  0  0
   10.0287    5.0205   23.8829 H   0  0  0  0  0  0
    9.5763    2.6146   23.9635 H   0  0  0  0  0  0
    7.9782   -0.4731   24.8536 H   0  0  0  0  0  0
    7.1478   -2.4657   25.8947 H   0  0  0  0  0  0
    8.8784   -2.6227   26.0780 H   0  0  0  0  0  0
    7.8884   -4.7609   25.2983 H   0  0  0  0  0  0
    8.9440   -4.1276   24.0477 H   0  0  0  0  0  0
    5.8066   -4.9270   22.0750 H   0  0  0  0  0  0
    5.4303   -2.2208   19.7879 H   0  0  0  0  0  0
    7.6315    0.4038   22.3236 H   0  0  0  0  0  0
  1  2  2  0  0  0
  2  3  1  0  0  0
  2 14  1  0  0  0
  3  4  1  0  0  0
  3 26  1  0  0  0
  4 13  2  0  0  0
  4  5  1  0  0  0
  5  6  2  0  0  0
  5 27  1  0  0  0
  6  7  1  0  0  0
  7  8  2  0  0  0
  7 28  1  0  0  0
  8 13  1  0  0  0
  8  9  1  0  0  0
  9 10  2  0  0  0
  9 29  1  0  0  0
 10 11  1  0  0  0
 10 30  1  0  0  0
 11 12  2  0  0  0
 11 31  1  0  0  0
 12 13  1  0  0  0
 12 32  1  0  0  0
 14 25  1  0  0  0
 14 15  1  0  0  0
 14 33  1  0  0  0
 15 16  1  0  0  0
 15 34  1  0  0  0
 15 35  1  0  0  0
 16 17  1  0  0  0
 16 36  1  0  0  0
 16 37  1  0  0  0
 17 18  1  0  0  0
 18 25  2  0  0  0
 18 19  1  0  0  0
 19 20  1  0  0  0
 19 21  2  0  0  0
 20 38  1  0  0  0
 21 22  1  0  0  0
 21 39  1  0  0  0
 22 23  1  0  0  0
 22 24  2  0  0  0
 24 25  1  0  0  0
 24 40  1  0  0  0
M  END
> <r_i_docking_score>
-6.26263485746904

$$$$
ligprep_5.maegz:207
                    3D
 Schrodinger Suite 2020-4.
 38 41  0  0  1  0            999 V2000
    9.9555   -1.1915   24.8161 O   0  0  0  0  0  0
    9.7224   -1.6179   23.6864 C   0  0  0  0  0  0
    8.6777   -2.4127   23.3692 N   0  0  0  0  0  0
    7.6321   -2.8865   24.2011 C   0  0  0  0  0  0
    7.4095   -2.4328   25.5162 C   0  0  0  0  0  0
    6.4075   -2.8622   26.3176 N   0  0  0  0  0  0
    5.5597   -3.7816   25.8153 C   0  0  0  0  0  0
    5.6474   -4.3180   24.5150 C   0  0  0  0  0  0
    4.7282   -5.2683   24.0105 C   0  0  0  0  0  0
    4.9008   -5.7355   22.7105 C   0  0  0  0  0  0
    5.9087   -5.3416   21.8958 N   0  0  0  0  0  0
    6.7837   -4.4344   22.3845 C   0  0  0  0  0  0
    6.7205   -3.8619   23.6847 C   0  0  0  0  0  0
   10.6991   -1.2576   22.5452 C   0  0  2  0  0  0
   11.9058   -2.2214   22.6301 C   0  0  0  0  0  0
   13.1311   -1.6673   21.8938 C   0  0  0  0  0  0
   13.5202   -0.4049   22.4397 O   0  0  0  0  0  0
   12.5143    0.5331   22.5732 C   0  0  0  0  0  0
   12.9364    1.8605   22.6416 C   0  0  0  0  0  0
   12.0119    2.8878   22.8040 C   0  0  0  0  0  0
   10.6558    2.5905   22.8920 C   0  0  0  0  0  0
    9.5063    3.8578   23.1082 Cl  0  0  0  0  0  0
   10.2285    1.2647   22.8049 C   0  0  0  0  0  0
   11.1465    0.2077   22.6793 C   0  0  0  0  0  0
    8.6390   -2.7341   22.4135 H   0  0  0  0  0  0
    8.0251   -1.6820   25.9805 H   0  0  0  0  0  0
    4.7644   -4.1040   26.4731 H   0  0  0  0  0  0
    3.9091   -5.6171   24.6266 H   0  0  0  0  0  0
    4.2064   -6.4521   22.3086 H   0  0  0  0  0  0
    7.5763   -4.1536   21.7060 H   0  0  0  0  0  0
   10.1758   -1.4031   21.5977 H   0  0  0  0  0  0
   11.6346   -3.1832   22.1976 H   0  0  0  0  0  0
   12.1950   -2.4228   23.6615 H   0  0  0  0  0  0
   12.9134   -1.5905   20.8285 H   0  0  0  0  0  0
   13.9688   -2.3594   21.9892 H   0  0  0  0  0  0
   13.9805    2.0956   22.5466 H   0  0  0  0  0  0
   12.3486    3.9133   22.8529 H   0  0  0  0  0  0
    9.1704    1.0507   22.8612 H   0  0  0  0  0  0
  1  2  2  0  0  0
  2  3  1  0  0  0
  2 14  1  0  0  0
  3  4  1  0  0  0
  3 25  1  0  0  0
  4 13  2  0  0  0
  4  5  1  0  0  0
  5  6  2  0  0  0
  5 26  1  0  0  0
  6  7  1  0  0  0
  7  8  2  0  0  0
  7 27  1  0  0  0
  8 13  1  0  0  0
  8  9  1  0  0  0
  9 10  2  0  0  0
  9 28  1  0  0  0
 10 11  1  0  0  0
 10 29  1  0  0  0
 11 12  2  0  0  0
 12 13  1  0  0  0
 12 30  1  0  0  0
 14 15  1  0  0  0
 14 24  1  0  0  0
 14 31  1  0  0  0
 15 16  1  0  0  0
 15 32  1  0  0  0
 15 33  1  0  0  0
 16 17  1  0  0  0
 16 34  1  0  0  0
 16 35  1  0  0  0
 17 18  1  0  0  0
 18 24  2  0  0  0
 18 19  1  0  0  0
 19 20  2  0  0  0
 19 36  1  0  0  0
 20 21  1  0  0  0
 20 37  1  0  0  0
 21 22  1  0  0  0
 21 23  2  0  0  0
 23 24  1  0  0  0
 23 38  1  0  0  0
M  END
> <r_i_docking_score>
-5.9257471007384

$$$$
ligprep_5.maegz:208
                    3D
 Schrodinger Suite 2020-4.
 40 43  0  0  1  0            999 V2000
    8.6750    1.5469   20.7081 O   0  0  0  0  0  0
    8.3419    0.6705   21.5069 C   0  0  0  0  0  0
    9.1753    0.1717   22.4436 N   0  0  0  0  0  0
   10.5319    0.5106   22.5393 C   0  0  0  0  0  0
   11.4529   -0.5157   22.3266 C   0  0  0  0  0  0
   12.7701   -0.2544   22.3080 N   0  3  0  0  0  0
   13.5702   -1.2010   22.0846 O   0  5  0  0  0  0
   13.2702    0.9824   22.4734 C   0  0  0  0  0  0
   12.4162    2.0860   22.7079 C   0  0  0  0  0  0
   12.9122    3.4056   22.8393 C   0  0  0  0  0  0
   12.0460    4.4584   23.1151 C   0  0  0  0  0  0
   10.6838    4.2271   23.2607 C   0  0  0  0  0  0
   10.1606    2.9464   23.0997 C   0  0  0  0  0  0
   11.0084    1.8438   22.7915 C   0  0  0  0  0  0
    6.9225    0.0575   21.4390 C   0  0  2  0  0  0
    6.8493   -1.0048   20.3162 C   0  0  0  0  0  0
    6.6999   -0.3551   18.9258 C   0  0  0  0  0  0
    5.5000    0.4115   18.8674 O   0  0  0  0  0  0
    5.2794    1.2820   19.9191 C   0  0  0  0  0  0
    4.3219    2.2656   19.6805 C   0  0  0  0  0  0
    3.9694    3.1473   20.6987 C   0  0  0  0  0  0
    4.5917    3.0694   21.9411 C   0  0  0  0  0  0
    4.1763    4.1870   23.1913 Cl  0  0  0  0  0  0
    5.5550    2.0903   22.1755 C   0  0  0  0  0  0
    5.8917    1.1577   21.1851 C   0  0  0  0  0  0
    8.8614   -0.6123   22.9954 H   0  0  0  0  0  0
   11.1802   -1.5415   22.1265 H   0  0  0  0  0  0
   14.3430    1.0803   22.3952 H   0  0  0  0  0  0
   13.9746    3.5886   22.7377 H   0  0  0  0  0  0
   12.4336    5.4599   23.2205 H   0  0  0  0  0  0
   10.0203    5.0513   23.4697 H   0  0  0  0  0  0
    9.0934    2.7993   23.1846 H   0  0  0  0  0  0
    6.7568   -0.4281   22.4033 H   0  0  0  0  0  0
    5.9839   -1.6481   20.4859 H   0  0  0  0  0  0
    7.7265   -1.6521   20.3179 H   0  0  0  0  0  0
    6.6570   -1.1234   18.1525 H   0  0  0  0  0  0
    7.5580    0.2774   18.6974 H   0  0  0  0  0  0
    3.8560    2.3499   18.7076 H   0  0  0  0  0  0
    3.2440    3.9225   20.5035 H   0  0  0  0  0  0
    6.0256    2.0349   23.1464 H   0  0  0  0  0  0
  1  2  2  0  0  0
  2  3  1  0  0  0
  2 15  1  0  0  0
  3  4  1  0  0  0
  3 26  1  0  0  0
  4 14  2  0  0  0
  4  5  1  0  0  0
  5  6  2  0  0  0
  5 27  1  0  0  0
  6  7  1  0  0  0
  6  8  1  0  0  0
  8  9  2  0  0  0
  8 28  1  0  0  0
  9 14  1  0  0  0
  9 10  1  0  0  0
 10 11  2  0  0  0
 10 29  1  0  0  0
 11 12  1  0  0  0
 11 30  1  0  0  0
 12 13  2  0  0  0
 12 31  1  0  0  0
 13 14  1  0  0  0
 13 32  1  0  0  0
 15 16  1  0  0  0
 15 25  1  0  0  0
 15 33  1  0  0  0
 16 17  1  0  0  0
 16 34  1  0  0  0
 16 35  1  0  0  0
 17 18  1  0  0  0
 17 36  1  0  0  0
 17 37  1  0  0  0
 18 19  1  0  0  0
 19 25  2  0  0  0
 19 20  1  0  0  0
 20 21  2  0  0  0
 20 38  1  0  0  0
 21 22  1  0  0  0
 21 39  1  0  0  0
 22 23  1  0  0  0
 22 24  2  0  0  0
 24 25  1  0  0  0
 24 40  1  0  0  0
M  CHG  2   6   1   7  -1
M  END
> <r_i_docking_score>
-6.84536627780404

$$$$
ligprep_5.maegz:209
                    3D
 Schrodinger Suite 2020-4.
 41 44  0  0  1  0            999 V2000
    9.0101    1.1618   21.1285 O   0  0  0  0  0  0
    8.7176    0.9683   22.3148 C   0  0  0  0  0  0
    7.2988    0.4613   22.6916 C   0  0  1  0  0  0
    7.1922   -1.0509   22.4087 C   0  0  0  0  0  0
    8.1231   -1.9755   22.9111 C   0  0  0  0  0  0
    7.9695   -3.3377   22.6694 C   0  0  0  0  0  0
    6.8923   -3.7876   21.9095 C   0  0  0  0  0  0
    6.7028   -5.4738   21.5926 Cl  0  0  0  0  0  0
    5.9716   -2.8809   21.3951 C   0  0  0  0  0  0
    6.1118   -1.5203   21.6514 C   0  0  0  0  0  0
    6.8599    0.8765   24.1110 C   0  0  0  0  0  0
    7.9142    0.5104   25.1495 C   0  0  0  0  0  0
    9.2882    1.1025   24.7998 C   0  0  0  0  0  0
    9.6186    1.0760   23.3487 N   0  0  0  0  0  0
   10.9552    1.3994   23.0507 C   0  0  0  0  0  0
   11.8323    0.3621   22.7081 C   0  0  0  0  0  0
   13.1226    0.5512   22.3465 N   0  0  0  0  0  0
   13.5692    1.8259   22.3084 C   0  0  0  0  0  0
   12.8085    2.9616   22.6671 C   0  0  0  0  0  0
   13.3453    4.2728   22.6561 C   0  0  0  0  0  0
   12.5539    5.3522   23.0362 C   0  0  0  0  0  0
   11.2266    5.1600   23.4048 C   0  0  0  0  0  0
   10.6686    3.8817   23.4107 C   0  0  0  0  0  0
   11.4512    2.7477   23.0549 C   0  0  0  0  0  0
    6.6245    0.9601   21.9918 H   0  0  0  0  0  0
    8.9723   -1.6467   23.4890 H   0  0  0  0  0  0
    8.6913   -4.0449   23.0548 H   0  0  0  0  0  0
    5.1696   -3.2307   20.7741 H   0  0  0  0  0  0
    5.3820   -0.8309   21.2508 H   0  0  0  0  0  0
    5.9023    0.4133   24.3586 H   0  0  0  0  0  0
    6.6878    1.9547   24.1390 H   0  0  0  0  0  0
    7.9909   -0.5708   25.2415 H   0  0  0  0  0  0
    7.6124    0.8484   26.1413 H   0  0  0  0  0  0
   10.0668    0.5773   25.3599 H   0  0  0  0  0  0
    9.3185    2.1423   25.1320 H   0  0  0  0  0  0
   11.4889   -0.6638   22.6888 H   0  0  0  0  0  0
   14.6000    1.9496   22.0086 H   0  0  0  0  0  0
   14.3739    4.4241   22.3661 H   0  0  0  0  0  0
   12.9750    6.3458   23.0422 H   0  0  0  0  0  0
   10.6217    6.0088   23.6809 H   0  0  0  0  0  0
    9.6309    3.7597   23.6792 H   0  0  0  0  0  0
  1  2  2  0  0  0
  2 14  1  0  0  0
  2  3  1  0  0  0
  3  4  1  0  0  0
  3 11  1  0  0  0
  3 25  1  0  0  0
  4 10  2  0  0  0
  4  5  1  0  0  0
  5  6  2  0  0  0
  5 26  1  0  0  0
  6  7  1  0  0  0
  6 27  1  0  0  0
  7  8  1  0  0  0
  7  9  2  0  0  0
  9 10  1  0  0  0
  9 28  1  0  0  0
 10 29  1  0  0  0
 11 12  1  0  0  0
 11 30  1  0  0  0
 11 31  1  0  0  0
 12 13  1  0  0  0
 12 32  1  0  0  0
 12 33  1  0  0  0
 13 14  1  0  0  0
 13 34  1  0  0  0
 13 35  1  0  0  0
 14 15  1  0  0  0
 15 24  2  0  0  0
 15 16  1  0  0  0
 16 17  2  0  0  0
 16 36  1  0  0  0
 17 18  1  0  0  0
 18 19  2  0  0  0
 18 37  1  0  0  0
 19 24  1  0  0  0
 19 20  1  0  0  0
 20 21  2  0  0  0
 20 38  1  0  0  0
 21 22  1  0  0  0
 21 39  1  0  0  0
 22 23  2  0  0  0
 22 40  1  0  0  0
 23 24  1  0  0  0
 23 41  1  0  0  0
M  END
> <r_i_docking_score>
-6.47948739123863

$$$$
ligprep_5.maegz:210
                    3D
 Schrodinger Suite 2020-4.
 41 45  0  0  1  0            999 V2000
    7.3234   -2.8914   22.2476 O   0  0  0  0  0  0
    8.0285   -2.0750   22.8375 C   0  0  0  0  0  0
    8.4109   -0.8820   22.3669 N   0  0  0  0  0  0
    9.1848   -0.0982   23.2930 C   0  0  2  0  0  0
    8.5926    1.3153   23.5350 C   0  0  0  0  0  0
    9.5616    2.2047   24.3398 C   0  0  0  0  0  0
   10.7917    2.3635   23.6314 O   0  0  0  0  0  0
   11.3823    1.2038   23.1641 C   0  0  0  0  0  0
   12.7387    1.3166   22.8654 C   0  0  0  0  0  0
   13.4235    0.2344   22.3222 C   0  0  0  0  0  0
   12.7522   -0.9609   22.0724 C   0  0  0  0  0  0
   13.5744   -2.3006   21.3682 Cl  0  0  0  0  0  0
   11.3969   -1.0681   22.3648 C   0  0  0  0  0  0
   10.6775    0.0038   22.9217 C   0  0  0  0  0  0
    9.0784   -0.9867   24.5272 C   0  0  0  0  0  0
    9.4605   -0.6971   25.6638 O   0  0  0  0  0  0
    8.4894   -2.1327   24.1168 N   0  0  0  0  0  0
    8.3848   -3.2698   24.9389 C   0  0  0  0  0  0
    9.5153   -4.0791   25.1090 C   0  0  0  0  0  0
    9.5464   -5.1740   25.9032 N   0  0  0  0  0  0
    8.4113   -5.4930   26.5626 C   0  0  0  0  0  0
    7.2013   -4.7707   26.4803 C   0  0  0  0  0  0
    6.0385   -5.1497   27.1943 C   0  0  0  0  0  0
    4.8768   -4.3912   27.0794 C   0  0  0  0  0  0
    4.8429   -3.2623   26.2665 C   0  0  0  0  0  0
    5.9726   -2.8678   25.5524 C   0  0  0  0  0  0
    7.1808   -3.6148   25.6388 C   0  0  0  0  0  0
    8.4591   -0.6846   21.3785 H   0  0  0  0  0  0
    7.6238    1.2657   24.0357 H   0  0  0  0  0  0
    8.4336    1.8144   22.5773 H   0  0  0  0  0  0
    9.7586    1.7849   25.3273 H   0  0  0  0  0  0
    9.1226    3.1908   24.4979 H   0  0  0  0  0  0
   13.2536    2.2497   23.0412 H   0  0  0  0  0  0
   14.4642    0.3459   22.0733 H   0  0  0  0  0  0
   10.9017   -2.0046   22.1521 H   0  0  0  0  0  0
   10.4448   -3.8415   24.6110 H   0  0  0  0  0  0
    8.4642   -6.3721   27.1871 H   0  0  0  0  0  0
    6.0597   -6.0277   27.8254 H   0  0  0  0  0  0
    3.9918   -4.6813   27.6270 H   0  0  0  0  0  0
    3.9331   -2.6854   26.1878 H   0  0  0  0  0  0
    5.9286   -1.9896   24.9251 H   0  0  0  0  0  0
  1  2  2  0  0  0
  2 17  1  0  0  0
  2  3  1  0  0  0
  3  4  1  0  0  0
  3 28  1  0  0  0
  4 14  1  0  0  0
  4  5  1  0  0  0
  4 15  1  0  0  0
  5  6  1  0  0  0
  5 29  1  0  0  0
  5 30  1  0  0  0
  6  7  1  0  0  0
  6 31  1  0  0  0
  6 32  1  0  0  0
  7  8  1  0  0  0
  8 14  2  0  0  0
  8  9  1  0  0  0
  9 10  2  0  0  0
  9 33  1  0  0  0
 10 11  1  0  0  0
 10 34  1  0  0  0
 11 12  1  0  0  0
 11 13  2  0  0  0
 13 14  1  0  0  0
 13 35  1  0  0  0
 15 16  2  0  0  0
 15 17  1  0  0  0
 17 18  1  0  0  0
 18 27  2  0  0  0
 18 19  1  0  0  0
 19 20  2  0  0  0
 19 36  1  0  0  0
 20 21  1  0  0  0
 21 22  2  0  0  0
 21 37  1  0  0  0
 22 27  1  0  0  0
 22 23  1  0  0  0
 23 24  2  0  0  0
 23 38  1  0  0  0
 24 25  1  0  0  0
 24 39  1  0  0  0
 25 26  2  0  0  0
 25 40  1  0  0  0
 26 27  1  0  0  0
 26 41  1  0  0  0
M  END
> <r_i_docking_score>
-6.26089591949088

$$$$
ligprep_5.maegz:211
                    3D
 Schrodinger Suite 2020-4.
 34 36  0  0  1  0            999 V2000
    9.6895    0.4483   21.5079 O   0  0  0  0  0  0
   10.3910   -0.1789   22.3042 C   0  0  0  0  0  0
   11.7664    0.3941   22.6990 C   0  0  0  0  0  0
   11.7625    1.9083   22.9522 C   0  0  0  0  0  0
   10.7831    2.4898   23.7664 C   0  0  0  0  0  0
   10.7702    3.8624   23.9881 C   0  0  0  0  0  0
   11.7595    4.6714   23.4347 C   0  0  0  0  0  0
   11.7353    6.3591   23.7816 Cl  0  0  0  0  0  0
   12.7559    4.1065   22.6307 C   0  0  0  0  0  0
   13.9768    5.0968   21.9087 Cl  0  0  0  0  0  0
   12.7606    2.7269   22.4006 C   0  0  0  0  0  0
   10.0441   -1.3468   22.8872 N   0  0  0  0  0  0
    8.8260   -2.0698   22.8219 C   0  0  0  0  0  0
    7.7950   -1.7790   21.9098 C   0  0  0  0  0  0
    6.6074   -2.4261   21.8672 N   0  0  0  0  0  0
    6.4026   -3.4142   22.7624 C   0  0  0  0  0  0
    7.3440   -3.8282   23.7267 C   0  0  0  0  0  0
    7.0777   -4.8694   24.6489 C   0  0  0  0  0  0
    8.0468   -5.2523   25.5713 C   0  0  0  0  0  0
    9.2867   -4.6244   25.5901 C   0  0  0  0  0  0
    9.5701   -3.5908   24.7012 C   0  0  0  0  0  0
    8.6039   -3.1495   23.7480 C   0  0  0  0  0  0
   12.4737    0.1471   21.9096 H   0  0  0  0  0  0
   12.1414   -0.0947   23.5989 H   0  0  0  0  0  0
   10.0154    1.8828   24.2179 H   0  0  0  0  0  0
    9.9975    4.2987   24.6034 H   0  0  0  0  0  0
   13.5332    2.2993   21.7805 H   0  0  0  0  0  0
   10.7341   -1.7547   23.4999 H   0  0  0  0  0  0
    7.8864   -1.0066   21.1648 H   0  0  0  0  0  0
    5.4411   -3.9049   22.7120 H   0  0  0  0  0  0
    6.1213   -5.3728   24.6280 H   0  0  0  0  0  0
    7.8426   -6.0528   26.2699 H   0  0  0  0  0  0
   10.0386   -4.9518   26.2971 H   0  0  0  0  0  0
   10.5498   -3.1374   24.7078 H   0  0  0  0  0  0
  1  2  2  0  0  0
  2  3  1  0  0  0
  2 12  1  0  0  0
  3  4  1  0  0  0
  3 23  1  0  0  0
  3 24  1  0  0  0
  4 11  2  0  0  0
  4  5  1  0  0  0
  5  6  2  0  0  0
  5 25  1  0  0  0
  6  7  1  0  0  0
  6 26  1  0  0  0
  7  8  1  0  0  0
  7  9  2  0  0  0
  9 10  1  0  0  0
  9 11  1  0  0  0
 11 27  1  0  0  0
 12 13  1  0  0  0
 12 28  1  0  0  0
 13 22  2  0  0  0
 13 14  1  0  0  0
 14 15  2  0  0  0
 14 29  1  0  0  0
 15 16  1  0  0  0
 16 17  2  0  0  0
 16 30  1  0  0  0
 17 22  1  0  0  0
 17 18  1  0  0  0
 18 19  2  0  0  0
 18 31  1  0  0  0
 19 20  1  0  0  0
 19 32  1  0  0  0
 20 21  2  0  0  0
 20 33  1  0  0  0
 21 22  1  0  0  0
 21 34  1  0  0  0
M  END
> <r_i_docking_score>
-6.50764480200109

$$$$
ligprep_5.maegz:212
                    3D
 Schrodinger Suite 2020-4.
 46 49  0  0  1  0            999 V2000
    2.0063    3.4790   19.5774 O   0  0  0  0  0  0
    3.0785    3.0026   19.9413 C   0  0  0  0  0  0
    3.5736    3.0013   21.4095 C   0  0  0  0  0  0
    5.1337    3.0856   21.5023 C   0  0  1  0  0  0
    5.6037    3.0138   22.9879 C   0  0  0  0  0  0
    4.9351    2.3463   23.7840 O   0  0  0  0  0  0
    6.7971    3.5662   23.3497 N   0  0  0  0  0  0
    7.3695    3.2910   24.6801 C   0  0  0  0  0  0
    8.8583    2.9162   24.4640 C   0  0  0  0  0  0
    9.6302    3.7999   23.5665 N   0  0  0  0  0  0
   10.9487    3.5478   23.1836 C   0  0  0  0  0  0
   11.8042    4.5837   22.7677 C   0  0  0  0  0  0
   13.1014    4.3199   22.3358 C   0  0  0  0  0  0
   13.5691    3.0078   22.3075 C   0  0  0  0  0  0
   12.7492    1.9677   22.7351 C   0  0  0  0  0  0
   13.3278    0.3432   22.7073 Cl  0  0  0  0  0  0
   11.4562    2.2372   23.1782 C   0  0  0  0  0  0
    8.8537    4.9657   23.1077 C   0  0  0  0  0  0
    7.4666    4.5897   22.5214 C   0  0  0  0  0  0
    5.7473    1.9469   20.6528 C   0  0  0  0  0  0
    6.9513    1.2706   20.9139 C   0  0  0  0  0  0
    7.4426    0.3080   20.0321 C   0  0  0  0  0  0
    6.7643    0.0384   18.8456 C   0  0  0  0  0  0
    5.5979    0.7345   18.5376 C   0  0  0  0  0  0
    5.0925    1.6736   19.4337 C   0  0  0  0  0  0
    3.9096    2.3470   19.1081 N   0  0  0  0  0  0
    3.0826    3.8124   21.9473 H   0  0  0  0  0  0
    3.2118    2.0473   21.7867 H   0  0  0  0  0  0
    5.4466    4.0496   21.1099 H   0  0  0  0  0  0
    7.3022    4.1923   25.2904 H   0  0  0  0  0  0
    6.8610    2.4921   25.2231 H   0  0  0  0  0  0
    8.8367    1.9345   23.9910 H   0  0  0  0  0  0
    9.3482    2.8647   25.4371 H   0  0  0  0  0  0
   11.4683    5.6103   22.7748 H   0  0  0  0  0  0
   13.7400    5.1283   22.0146 H   0  0  0  0  0  0
   14.5736    2.7988   21.9625 H   0  0  0  0  0  0
   10.8434    1.4042   23.4888 H   0  0  0  0  0  0
    9.3913    5.5413   22.3556 H   0  0  0  0  0  0
    8.7357    5.6093   23.9814 H   0  0  0  0  0  0
    7.6751    4.1560   21.5428 H   0  0  0  0  0  0
    6.8630    5.4925   22.4059 H   0  0  0  0  0  0
    7.5160    1.4716   21.8109 H   0  0  0  0  0  0
    8.3559   -0.2215   20.2640 H   0  0  0  0  0  0
    7.1520   -0.7009   18.1588 H   0  0  0  0  0  0
    5.0823    0.5283   17.6074 H   0  0  0  0  0  0
    3.5701    2.3031   18.1533 H   0  0  0  0  0  0
  1  2  2  0  0  0
  2 26  1  0  0  0
  2  3  1  0  0  0
  3  4  1  0  0  0
  3 27  1  0  0  0
  3 28  1  0  0  0
  4  5  1  0  0  0
  4 20  1  0  0  0
  4 29  1  0  0  0
  5  6  2  0  0  0
  5  7  1  0  0  0
  7 19  1  0  0  0
  7  8  1  0  0  0
  8  9  1  0  0  0
  8 30  1  0  0  0
  8 31  1  0  0  0
  9 10  1  0  0  0
  9 32  1  0  0  0
  9 33  1  0  0  0
 10 11  1  0  0  0
 10 18  1  0  0  0
 11 17  2  0  0  0
 11 12  1  0  0  0
 12 13  2  0  0  0
 12 34  1  0  0  0
 13 14  1  0  0  0
 13 35  1  0  0  0
 14 15  2  0  0  0
 14 36  1  0  0  0
 15 16  1  0  0  0
 15 17  1  0  0  0
 17 37  1  0  0  0
 18 19  1  0  0  0
 18 38  1  0  0  0
 18 39  1  0  0  0
 19 40  1  0  0  0
 19 41  1  0  0  0
 20 25  2  0  0  0
 20 21  1  0  0  0
 21 22  2  0  0  0
 21 42  1  0  0  0
 22 23  1  0  0  0
 22 43  1  0  0  0
 23 24  2  0  0  0
 23 44  1  0  0  0
 24 25  1  0  0  0
 24 45  1  0  0  0
 25 26  1  0  0  0
 26 46  1  0  0  0
M  END
> <r_i_docking_score>
-6.35746048895086

$$$$
ligprep_5.maegz:213
                    3D
 Schrodinger Suite 2020-4.
 51 54  0  0  1  0            999 V2000
    6.6989   -6.5352   22.2613 C   0  0  0  0  0  0
    7.2169   -5.2566   21.9276 O   0  0  0  0  0  0
    6.3860   -4.2046   21.7905 C   0  0  0  0  0  0
    5.1642   -4.2595   21.9093 O   0  0  0  0  0  0
    7.1019   -2.9738   21.5098 C   0  0  0  0  0  0
    6.4826   -1.7831   21.3501 C   0  0  0  0  0  0
    7.2404   -0.5602   21.1975 C   0  0  0  0  0  0
    7.3295   -0.0892   20.0599 O   0  0  0  0  0  0
    7.7999   -0.0092   22.3415 N   0  0  0  0  0  0
    8.7399    1.0027   22.3002 C   0  0  0  0  0  0
    9.0044    1.6464   21.2751 O   0  0  0  0  0  0
    9.5777    1.3627   23.5775 C   0  0  2  0  0  0
    9.2228    2.7723   24.1152 C   0  0  0  0  0  0
    9.9801    3.8817   23.3587 C   0  0  0  0  0  0
   11.3925    3.6839   23.4753 O   0  0  0  0  0  0
   11.8452    2.4319   23.1067 C   0  0  0  0  0  0
   13.1688    2.3646   22.6701 C   0  0  0  0  0  0
   13.7187    1.1346   22.3081 C   0  0  0  0  0  0
   12.9537   -0.0249   22.4017 C   0  0  0  0  0  0
   13.5697   -1.5525   21.8973 Cl  0  0  0  0  0  0
   11.6488    0.0463   22.8663 C   0  0  0  0  0  0
   11.0602    1.2676   23.2088 C   0  0  0  0  0  0
    7.2775   -0.3964   23.6126 C   0  0  0  0  0  0
    6.1789    0.3055   24.1313 C   0  0  0  0  0  0
    5.5585   -0.0102   25.2908 N   0  0  0  0  0  0
    6.0222   -1.0782   25.9772 C   0  0  0  0  0  0
    7.1143   -1.8776   25.5752 C   0  0  0  0  0  0
    7.5446   -3.0107   26.3081 C   0  0  0  0  0  0
    8.6333   -3.7587   25.8693 C   0  0  0  0  0  0
    9.3078   -3.4024   24.7077 C   0  0  0  0  0  0
    8.8994   -2.3007   23.9624 C   0  0  0  0  0  0
    7.7830   -1.5163   24.3641 C   0  0  0  0  0  0
    7.5028   -7.2714   22.2923 H   0  0  0  0  0  0
    6.2113   -6.5164   23.2366 H   0  0  0  0  0  0
    5.9639   -6.8545   21.5209 H   0  0  0  0  0  0
    8.1784   -3.0602   21.4626 H   0  0  0  0  0  0
    5.4089   -1.6631   21.3627 H   0  0  0  0  0  0
    9.3806    0.6261   24.3518 H   0  0  0  0  0  0
    8.1489    2.9607   24.0550 H   0  0  0  0  0  0
    9.4856    2.8323   25.1729 H   0  0  0  0  0  0
    9.6917    3.8911   22.3090 H   0  0  0  0  0  0
    9.7270    4.8611   23.7638 H   0  0  0  0  0  0
   13.7648    3.2629   22.6055 H   0  0  0  0  0  0
   14.7321    1.0906   21.9351 H   0  0  0  0  0  0
   11.0750   -0.8606   22.9100 H   0  0  0  0  0  0
    5.7544    1.1387   23.5890 H   0  0  0  0  0  0
    5.4916   -1.3176   26.8877 H   0  0  0  0  0  0
    7.0162   -3.3020   27.2024 H   0  0  0  0  0  0
    8.9554   -4.6227   26.4318 H   0  0  0  0  0  0
   10.1510   -3.9928   24.3798 H   0  0  0  0  0  0
    9.4117   -2.0684   23.0442 H   0  0  0  0  0  0
  1  2  1  0  0  0
  1 33  1  0  0  0
  1 34  1  0  0  0
  1 35  1  0  0  0
  2  3  1  0  0  0
  3  4  2  0  0  0
  3  5  1  0  0  0
  5  6  2  0  0  0
  5 36  1  0  0  0
  6  7  1  0  0  0
  6 37  1  0  0  0
  7  8  2  0  0  0
  7  9  1  0  0  0
  9 10  1  0  0  0
  9 23  1  0  0  0
 10 11  2  0  0  0
 10 12  1  0  0  0
 12 13  1  0  0  0
 12 22  1  0  0  0
 12 38  1  0  0  0
 13 14  1  0  0  0
 13 39  1  0  0  0
 13 40  1  0  0  0
 14 15  1  0  0  0
 14 41  1  0  0  0
 14 42  1  0  0  0
 15 16  1  0  0  0
 16 22  2  0  0  0
 16 17  1  0  0  0
 17 18  2  0  0  0
 17 43  1  0  0  0
 18 19  1  0  0  0
 18 44  1  0  0  0
 19 20  1  0  0  0
 19 21  2  0  0  0
 21 22  1  0  0  0
 21 45  1  0  0  0
 23 32  2  0  0  0
 23 24  1  0  0  0
 24 25  2  0  0  0
 24 46  1  0  0  0
 25 26  1  0  0  0
 26 27  2  0  0  0
 26 47  1  0  0  0
 27 32  1  0  0  0
 27 28  1  0  0  0
 28 29  2  0  0  0
 28 48  1  0  0  0
 29 30  1  0  0  0
 29 49  1  0  0  0
 30 31  2  0  0  0
 30 50  1  0  0  0
 31 32  1  0  0  0
 31 51  1  0  0  0
M  END
> <r_i_docking_score>
-7.36707586735342

$$$$
ligprep_5.maegz:214
                    3D
 Schrodinger Suite 2020-4.
 39 42  0  0  1  0            999 V2000
    7.6484   -2.2150   22.4281 O   0  0  0  0  0  0
    8.3885   -1.2603   22.6771 C   0  0  0  0  0  0
    8.3187   -0.0808   22.0185 N   0  0  0  0  0  0
    7.4067    0.2120   20.9945 C   0  0  0  0  0  0
    7.5072   -0.4506   19.7674 C   0  0  0  0  0  0
    6.6918   -0.2151   18.7138 N   0  0  0  0  0  0
    5.7308    0.7209   18.8624 C   0  0  0  0  0  0
    5.5156    1.4606   20.0453 C   0  0  0  0  0  0
    4.4892    2.4251   20.1630 C   0  0  0  0  0  0
    4.3310    3.1343   21.3522 C   0  0  0  0  0  0
    5.1726    2.8953   22.4343 C   0  0  0  0  0  0
    5.0064    3.5935   23.5800 F   0  0  0  0  0  0
    6.1867    1.9465   22.3509 C   0  0  0  0  0  0
    6.3853    1.2031   21.1533 C   0  0  0  0  0  0
    9.4431   -1.3948   23.8100 C   0  0  2  0  0  0
    9.0326   -0.6139   25.0807 C   0  0  0  0  0  0
    9.3763    0.8854   24.9651 C   0  0  0  0  0  0
   10.7696    1.0854   24.7072 O   0  0  0  0  0  0
   11.3473    0.2927   23.7311 C   0  0  0  0  0  0
   12.5675    0.7498   23.2295 C   0  0  0  0  0  0
   13.2828   -0.0188   22.3109 C   0  0  0  0  0  0
   12.7816   -1.2534   21.9079 C   0  0  0  0  0  0
   13.6549   -2.2051   20.7668 Cl  0  0  0  0  0  0
   11.5546   -1.7040   22.3925 C   0  0  0  0  0  0
   10.8192   -0.9448   23.3146 C   0  0  0  0  0  0
    8.9213    0.6665   22.3277 H   0  0  0  0  0  0
    8.2671   -1.2040   19.6127 H   0  0  0  0  0  0
    5.0951    0.8907   18.0041 H   0  0  0  0  0  0
    3.8477    2.6301   19.3158 H   0  0  0  0  0  0
    3.5605    3.8877   21.4265 H   0  0  0  0  0  0
    6.8227    1.7753   23.2045 H   0  0  0  0  0  0
    9.4490   -2.4634   24.0301 H   0  0  0  0  0  0
    9.5644   -1.0170   25.9401 H   0  0  0  0  0  0
    7.9683   -0.7305   25.2927 H   0  0  0  0  0  0
    9.1265    1.3944   25.8982 H   0  0  0  0  0  0
    8.7921    1.3657   24.1803 H   0  0  0  0  0  0
   12.9686    1.6947   23.5656 H   0  0  0  0  0  0
   14.2257    0.3423   21.9251 H   0  0  0  0  0  0
   11.1641   -2.6499   22.0380 H   0  0  0  0  0  0
  1  2  2  0  0  0
  2  3  1  0  0  0
  2 15  1  0  0  0
  3  4  1  0  0  0
  3 26  1  0  0  0
  4 14  2  0  0  0
  4  5  1  0  0  0
  5  6  2  0  0  0
  5 27  1  0  0  0
  6  7  1  0  0  0
  7  8  2  0  0  0
  7 28  1  0  0  0
  8 14  1  0  0  0
  8  9  1  0  0  0
  9 10  2  0  0  0
  9 29  1  0  0  0
 10 11  1  0  0  0
 10 30  1  0  0  0
 11 12  1  0  0  0
 11 13  2  0  0  0
 13 14  1  0  0  0
 13 31  1  0  0  0
 15 25  1  0  0  0
 15 16  1  0  0  0
 15 32  1  0  0  0
 16 17  1  0  0  0
 16 33  1  0  0  0
 16 34  1  0  0  0
 17 18  1  0  0  0
 17 35  1  0  0  0
 17 36  1  0  0  0
 18 19  1  0  0  0
 19 25  2  0  0  0
 19 20  1  0  0  0
 20 21  2  0  0  0
 20 37  1  0  0  0
 21 22  1  0  0  0
 21 38  1  0  0  0
 22 23  1  0  0  0
 22 24  2  0  0  0
 24 25  1  0  0  0
 24 39  1  0  0  0
M  END
> <r_i_docking_score>
-5.85142278574679

$$$$
ligprep_5.maegz:215
                    3D
 Schrodinger Suite 2020-4.
 59 62  0  0  1  0            999 V2000
    7.2200   -2.6944   25.8145 O   0  0  0  0  0  0
    7.8454   -2.1511   24.9022 C   0  0  0  0  0  0
    8.6237   -1.0856   25.1399 N   0  0  0  0  0  0
    8.7599   -0.4204   26.4346 C   0  0  0  0  0  0
    7.4832    0.3182   26.9053 C   0  0  0  0  0  0
    6.9179    1.3027   25.8891 C   0  0  0  0  0  0
    5.8108    0.9554   25.1042 C   0  0  0  0  0  0
    5.3060    1.8526   24.1618 C   0  0  0  0  0  0
    5.9107    3.0987   23.9952 C   0  0  0  0  0  0
    7.0132    3.4502   24.7750 C   0  0  0  0  0  0
    7.6062    4.6537   24.6087 F   0  0  0  0  0  0
    7.5130    2.5551   25.7213 C   0  0  0  0  0  0
    7.7593   -2.6915   23.4264 C   0  0  1  0  0  0
    6.8431   -3.9092   23.2806 C   0  0  0  0  0  0
    7.2701   -5.0446   22.5812 C   0  0  0  0  0  0
    6.4093   -6.1338   22.4315 C   0  0  0  0  0  0
    5.1265   -6.0513   22.9735 C   0  0  0  0  0  0
    4.6853   -4.9761   23.6659 N   0  0  0  0  0  0
    5.5423   -3.9372   23.8183 C   0  0  0  0  0  0
    7.6950   -1.6671   22.2920 N   0  0  0  0  0  0
    6.5892   -1.5102   21.4677 C   0  0  0  0  0  0
    5.5698   -2.1899   21.5705 O   0  0  0  0  0  0
    6.5590   -0.5133   20.3976 C   0  0  0  0  0  0
    5.3846    0.0936   19.9368 C   0  0  0  0  0  0
    5.7252    0.8547   18.8584 N   0  0  0  0  0  0
    7.0671    0.6582   18.7092 C   0  0  0  0  0  0
    7.5695   -0.1570   19.6083 N   0  0  0  0  0  0
    8.7273   -0.6868   22.2784 C   0  0  0  0  0  0
    8.4393    0.6506   22.5816 C   0  0  0  0  0  0
    9.4666    1.5711   22.7492 C   0  0  0  0  0  0
   10.8026    1.1648   22.6321 C   0  0  0  0  0  0
   11.8841    2.0007   22.8309 O   0  0  0  0  0  0
   11.6624    3.3943   23.0393 C   0  0  0  0  0  0
   12.8219    4.0413   22.9152 F   0  0  0  0  0  0
   11.1691    3.6215   24.2588 F   0  0  0  0  0  0
   11.0839   -0.1632   22.3045 C   0  0  0  0  0  0
   10.0567   -1.0859   22.1129 C   0  0  0  0  0  0
    9.1133   -0.6677   24.3594 H   0  0  0  0  0  0
    9.1368   -1.1037   27.1972 H   0  0  0  0  0  0
    9.5352    0.3236   26.2505 H   0  0  0  0  0  0
    6.7157   -0.4095   27.1636 H   0  0  0  0  0  0
    7.6828    0.8414   27.8412 H   0  0  0  0  0  0
    5.3504   -0.0178   25.2106 H   0  0  0  0  0  0
    4.4640    1.5688   23.5462 H   0  0  0  0  0  0
    5.5344    3.7928   23.2565 H   0  0  0  0  0  0
    8.3693    2.8358   26.3141 H   0  0  0  0  0  0
    8.7619   -3.1114   23.3253 H   0  0  0  0  0  0
    8.2621   -5.0851   22.1556 H   0  0  0  0  0  0
    6.7229   -7.0239   21.9080 H   0  0  0  0  0  0
    4.4171   -6.8525   22.8553 H   0  0  0  0  0  0
    5.1476   -3.0844   24.3488 H   0  0  0  0  0  0
    4.3622    0.0347   20.2823 H   0  0  0  0  0  0
    5.1159    1.4267   18.2875 H   0  0  0  0  0  0
    7.5893    1.1439   17.8984 H   0  0  0  0  0  0
    7.4177    0.9718   22.7199 H   0  0  0  0  0  0
    9.1995    2.5857   23.0012 H   0  0  0  0  0  0
   10.9892    3.8365   22.3069 H   0  0  0  0  0  0
   12.1088   -0.4847   22.1969 H   0  0  0  0  0  0
   10.3011   -2.1134   21.8807 H   0  0  0  0  0  0
  1  2  2  0  0  0
  2  3  1  0  0  0
  2 13  1  0  0  0
  3  4  1  0  0  0
  3 38  1  0  0  0
  4  5  1  0  0  0
  4 39  1  0  0  0
  4 40  1  0  0  0
  5  6  1  0  0  0
  5 41  1  0  0  0
  5 42  1  0  0  0
  6 12  2  0  0  0
  6  7  1  0  0  0
  7  8  2  0  0  0
  7 43  1  0  0  0
  8  9  1  0  0  0
  8 44  1  0  0  0
  9 10  2  0  0  0
  9 45  1  0  0  0
 10 11  1  0  0  0
 10 12  1  0  0  0
 12 46  1  0  0  0
 13 14  1  0  0  0
 13 20  1  0  0  0
 13 47  1  0  0  0
 14 19  2  0  0  0
 14 15  1  0  0  0
 15 16  2  0  0  0
 15 48  1  0  0  0
 16 17  1  0  0  0
 16 49  1  0  0  0
 17 18  2  0  0  0
 17 50  1  0  0  0
 18 19  1  0  0  0
 19 51  1  0  0  0
 20 21  1  0  0  0
 20 28  1  0  0  0
 21 22  2  0  0  0
 21 23  1  0  0  0
 23 27  1  0  0  0
 23 24  2  0  0  0
 24 25  1  0  0  0
 24 52  1  0  0  0
 25 26  1  0  0  0
 25 53  1  0  0  0
 26 27  2  0  0  0
 26 54  1  0  0  0
 28 37  2  0  0  0
 28 29  1  0  0  0
 29 30  2  0  0  0
 29 55  1  0  0  0
 30 31  1  0  0  0
 30 56  1  0  0  0
 31 32  1  0  0  0
 31 36  2  0  0  0
 32 33  1  0  0  0
 33 34  1  0  0  0
 33 35  1  0  0  0
 33 57  1  0  0  0
 36 37  1  0  0  0
 36 58  1  0  0  0
 37 59  1  0  0  0
M  END
> <r_i_docking_score>
-5.57890762341213

$$$$
ligprep_5.maegz:216
                    3D
 Schrodinger Suite 2020-4.
 65 68  0  0  1  0            999 V2000
   10.3704    4.2282   24.4557 C   0  0  0  0  0  0
    9.8824    4.7991   23.1153 C   0  0  0  0  0  0
    9.9880    6.3292   23.0763 C   0  0  0  0  0  0
    8.5027    4.4915   22.9213 O   0  0  0  0  0  0
    8.0896    3.2144   22.5908 C   0  0  0  0  0  0
    8.9358    2.1740   22.1696 C   0  0  0  0  0  0
    8.4110    0.9176   21.8712 C   0  0  0  0  0  0
    7.0374    0.6854   21.9961 C   0  0  0  0  0  0
    6.5321   -0.6225   21.7549 N   0  0  0  0  0  0
    5.9693   -0.9203   20.5337 C   0  0  0  0  0  0
    5.6866   -2.0577   20.1489 O   0  0  0  0  0  0
    5.6711    0.1444   19.6111 C   0  0  0  0  0  0
    6.1241    0.1628   18.3079 C   0  0  0  0  0  0
    5.5696    1.2705   17.7362 N   0  0  0  0  0  0
    4.8269    1.8572   18.7204 C   0  0  0  0  0  0
    4.8576    1.1740   19.8364 N   0  0  0  0  0  0
    6.6159   -1.6005   22.8988 C   0  0  1  0  0  0
    5.8713   -1.1318   24.1914 C   0  0  0  0  0  0
    6.1642   -0.0549   24.7105 O   0  0  0  0  0  0
    5.0707   -2.0115   24.8092 N   0  0  0  0  0  0
    4.6994   -1.9339   26.2151 C   0  0  0  0  0  0
    5.9278   -2.0719   27.1436 C   0  0  0  0  0  0
    6.9371   -3.1400   26.7083 C   0  0  0  0  0  0
    6.7467   -4.4649   27.1032 C   0  0  0  0  0  0
    7.6636   -5.4428   26.7282 C   0  0  0  0  0  0
    8.7590   -5.1207   25.9292 C   0  0  0  0  0  0
    8.9463   -3.8012   25.5216 C   0  0  0  0  0  0
    9.9787   -3.4865   24.7082 F   0  0  0  0  0  0
    8.0615   -2.8080   25.9405 C   0  0  0  0  0  0
    6.4682   -3.0977   22.5790 C   0  0  0  0  0  0
    5.2255   -3.7528   22.4859 C   0  0  0  0  0  0
    5.1677   -5.1379   22.3247 C   0  0  0  0  0  0
    6.3600   -5.8478   22.2256 C   0  0  0  0  0  0
    7.5696   -5.2437   22.2771 N   0  0  0  0  0  0
    7.6085   -3.8969   22.4450 C   0  0  0  0  0  0
    6.1959    1.7208   22.4173 C   0  0  0  0  0  0
    6.7200    2.9782   22.6923 C   0  0  0  0  0  0
   11.4186    4.4771   24.6274 H   0  0  0  0  0  0
    9.7882    4.6350   25.2832 H   0  0  0  0  0  0
   10.2792    3.1428   24.4897 H   0  0  0  0  0  0
   10.5003    4.4085   22.3096 H   0  0  0  0  0  0
   11.0225    6.6620   23.1572 H   0  0  0  0  0  0
    9.5854    6.7146   22.1397 H   0  0  0  0  0  0
    9.4215    6.7908   23.8856 H   0  0  0  0  0  0
    9.9992    2.3217   22.0718 H   0  0  0  0  0  0
    9.0713    0.1212   21.5594 H   0  0  0  0  0  0
    6.7627   -0.5139   17.7605 H   0  0  0  0  0  0
    5.6830    1.6015   16.7878 H   0  0  0  0  0  0
    4.2873    2.7741   18.5229 H   0  0  0  0  0  0
    7.6570   -1.5130   23.2149 H   0  0  0  0  0  0
    4.9172   -2.8987   24.3538 H   0  0  0  0  0  0
    4.0257   -2.7771   26.3701 H   0  0  0  0  0  0
    4.1641   -0.9989   26.3942 H   0  0  0  0  0  0
    5.5696   -2.2609   28.1575 H   0  0  0  0  0  0
    6.4506   -1.1153   27.2060 H   0  0  0  0  0  0
    5.8959   -4.7382   27.7115 H   0  0  0  0  0  0
    7.5091   -6.4529   27.0563 H   0  0  0  0  0  0
    9.4550   -5.8889   25.6197 H   0  0  0  0  0  0
    8.2351   -1.7861   25.6365 H   0  0  0  0  0  0
    4.3089   -3.1874   22.5551 H   0  0  0  0  0  0
    4.2195   -5.6548   22.2910 H   0  0  0  0  0  0
    6.3570   -6.9221   22.1062 H   0  0  0  0  0  0
    8.5976   -3.4637   22.4981 H   0  0  0  0  0  0
    5.1359    1.5471   22.5354 H   0  0  0  0  0  0
    6.0618    3.7729   23.0095 H   0  0  0  0  0  0
  1  2  1  0  0  0
  1 38  1  0  0  0
  1 39  1  0  0  0
  1 40  1  0  0  0
  2  3  1  0  0  0
  2  4  1  0  0  0
  2 41  1  0  0  0
  3 42  1  0  0  0
  3 43  1  0  0  0
  3 44  1  0  0  0
  4  5  1  0  0  0
  5 37  2  0  0  0
  5  6  1  0  0  0
  6  7  2  0  0  0
  6 45  1  0  0  0
  7  8  1  0  0  0
  7 46  1  0  0  0
  8  9  1  0  0  0
  8 36  2  0  0  0
  9 10  1  0  0  0
  9 17  1  0  0  0
 10 11  2  0  0  0
 10 12  1  0  0  0
 12 16  1  0  0  0
 12 13  2  0  0  0
 13 14  1  0  0  0
 13 47  1  0  0  0
 14 15  1  0  0  0
 14 48  1  0  0  0
 15 16  2  0  0  0
 15 49  1  0  0  0
 17 18  1  0  0  0
 17 30  1  0  0  0
 17 50  1  0  0  0
 18 19  2  0  0  0
 18 20  1  0  0  0
 20 21  1  0  0  0
 20 51  1  0  0  0
 21 22  1  0  0  0
 21 52  1  0  0  0
 21 53  1  0  0  0
 22 23  1  0  0  0
 22 54  1  0  0  0
 22 55  1  0  0  0
 23 29  2  0  0  0
 23 24  1  0  0  0
 24 25  2  0  0  0
 24 56  1  0  0  0
 25 26  1  0  0  0
 25 57  1  0  0  0
 26 27  2  0  0  0
 26 58  1  0  0  0
 27 28  1  0  0  0
 27 29  1  0  0  0
 29 59  1  0  0  0
 30 35  2  0  0  0
 30 31  1  0  0  0
 31 32  2  0  0  0
 31 60  1  0  0  0
 32 33  1  0  0  0
 32 61  1  0  0  0
 33 34  2  0  0  0
 33 62  1  0  0  0
 34 35  1  0  0  0
 35 63  1  0  0  0
 36 37  1  0  0  0
 36 64  1  0  0  0
 37 65  1  0  0  0
M  END
> <r_i_docking_score>
-2.99296233529777

$$$$
ligprep_5.maegz:217
                    3D
 Schrodinger Suite 2020-4.
 59 62  0  0  1  0            999 V2000
    3.3579   -5.5679   23.2258 C   0  0  0  0  0  0
    4.6501   -5.6264   22.6410 O   0  0  0  0  0  0
    5.4626   -4.5128   22.6607 C   0  0  0  0  0  0
    5.1721   -3.3183   23.3422 C   0  0  0  0  0  0
    6.0792   -2.2582   23.3186 C   0  0  0  0  0  0
    7.2635   -2.3792   22.5817 C   0  0  0  0  0  0
    8.2537   -1.3726   22.6143 N   0  0  0  0  0  0
    8.1762   -0.2898   21.7496 C   0  0  0  0  0  0
    8.8933    0.7076   21.8783 O   0  0  0  0  0  0
    7.2810   -0.2736   20.5876 C   0  0  0  0  0  0
    6.0016   -0.8277   20.4219 C   0  0  0  0  0  0
    5.5697   -0.4512   19.1817 N   0  0  0  0  0  0
    6.5633    0.3281   18.6779 C   0  0  0  0  0  0
    7.5691    0.4445   19.5039 N   0  0  0  0  0  0
    9.2987   -1.4416   23.7228 C   0  0  1  0  0  0
    9.5695   -2.8555   24.3524 C   0  0  0  0  0  0
   10.6904   -3.3564   24.3078 O   0  0  0  0  0  0
    8.5532   -3.4889   24.9625 N   0  0  0  0  0  0
    8.6621   -4.8215   25.5617 C   0  0  0  0  0  0
    8.0118   -4.9134   26.9529 C   0  0  0  0  0  0
    6.5001   -4.7384   26.9425 C   0  0  0  0  0  0
    5.9295   -3.4611   26.9343 C   0  0  0  0  0  0
    4.5434   -3.3080   26.9402 C   0  0  0  0  0  0
    3.7190   -4.4335   26.9463 C   0  0  0  0  0  0
    4.2808   -5.7101   26.9414 C   0  0  0  0  0  0
    3.4817   -6.8002   26.9270 F   0  0  0  0  0  0
    5.6665   -5.8613   26.9404 C   0  0  0  0  0  0
   10.6432   -0.8102   23.3444 C   0  0  0  0  0  0
   11.1182    0.3140   24.0337 C   0  0  0  0  0  0
   12.3600    0.8585   23.7034 C   0  0  0  0  0  0
   13.1157    0.2433   22.7065 C   0  0  0  0  0  0
   12.6899   -0.8531   22.0306 N   0  0  0  0  0  0
   11.4631   -1.3455   22.3349 C   0  0  0  0  0  0
    7.5500   -3.5633   21.9080 C   0  0  0  0  0  0
    6.6538   -4.6244   21.9475 C   0  0  0  0  0  0
    2.8859   -6.5476   23.1421 H   0  0  0  0  0  0
    2.7214   -4.8529   22.7079 H   0  0  0  0  0  0
    3.3988   -5.3141   24.2834 H   0  0  0  0  0  0
    4.2605   -3.2074   23.9078 H   0  0  0  0  0  0
    5.8623   -1.3498   23.8620 H   0  0  0  0  0  0
    5.3542   -1.4144   21.0504 H   0  0  0  0  0  0
    4.6843   -0.6815   18.7371 H   0  0  0  0  0  0
    6.4725    0.7679   17.6941 H   0  0  0  0  0  0
    8.8773   -0.8610   24.5438 H   0  0  0  0  0  0
    7.6300   -3.0810   24.9205 H   0  0  0  0  0  0
    8.1177   -5.4824   24.8835 H   0  0  0  0  0  0
    9.6729   -5.2362   25.5924 H   0  0  0  0  0  0
    8.2636   -5.8746   27.4045 H   0  0  0  0  0  0
    8.4672   -4.1816   27.6216 H   0  0  0  0  0  0
    6.5599   -2.5834   26.9292 H   0  0  0  0  0  0
    4.1077   -2.3200   26.9404 H   0  0  0  0  0  0
    2.6452   -4.3212   26.9485 H   0  0  0  0  0  0
    6.0912   -6.8530   26.9412 H   0  0  0  0  0  0
   10.5267    0.7659   24.8158 H   0  0  0  0  0  0
   12.7356    1.7284   24.2181 H   0  0  0  0  0  0
   14.0826    0.6315   22.4251 H   0  0  0  0  0  0
   11.1513   -2.2161   21.7733 H   0  0  0  0  0  0
    8.4910   -3.6589   21.3907 H   0  0  0  0  0  0
    6.8941   -5.5437   21.4341 H   0  0  0  0  0  0
  1  2  1  0  0  0
  1 36  1  0  0  0
  1 37  1  0  0  0
  1 38  1  0  0  0
  2  3  1  0  0  0
  3 35  2  0  0  0
  3  4  1  0  0  0
  4  5  2  0  0  0
  4 39  1  0  0  0
  5  6  1  0  0  0
  5 40  1  0  0  0
  6  7  1  0  0  0
  6 34  2  0  0  0
  7  8  1  0  0  0
  7 15  1  0  0  0
  8  9  2  0  0  0
  8 10  1  0  0  0
 10 14  1  0  0  0
 10 11  2  0  0  0
 11 12  1  0  0  0
 11 41  1  0  0  0
 12 13  1  0  0  0
 12 42  1  0  0  0
 13 14  2  0  0  0
 13 43  1  0  0  0
 15 16  1  0  0  0
 15 28  1  0  0  0
 15 44  1  0  0  0
 16 17  2  0  0  0
 16 18  1  0  0  0
 18 19  1  0  0  0
 18 45  1  0  0  0
 19 20  1  0  0  0
 19 46  1  0  0  0
 19 47  1  0  0  0
 20 21  1  0  0  0
 20 48  1  0  0  0
 20 49  1  0  0  0
 21 27  2  0  0  0
 21 22  1  0  0  0
 22 23  2  0  0  0
 22 50  1  0  0  0
 23 24  1  0  0  0
 23 51  1  0  0  0
 24 25  2  0  0  0
 24 52  1  0  0  0
 25 26  1  0  0  0
 25 27  1  0  0  0
 27 53  1  0  0  0
 28 33  2  0  0  0
 28 29  1  0  0  0
 29 30  2  0  0  0
 29 54  1  0  0  0
 30 31  1  0  0  0
 30 55  1  0  0  0
 31 32  2  0  0  0
 31 56  1  0  0  0
 32 33  1  0  0  0
 33 57  1  0  0  0
 34 35  1  0  0  0
 34 58  1  0  0  0
 35 59  1  0  0  0
M  END
> <r_i_docking_score>
-4.98404415358521

$$$$
ligprep_5.maegz:218
                    3D
 Schrodinger Suite 2020-4.
 64 67  0  0  1  0            999 V2000
   10.3374    5.6235   22.7080 C   0  0  0  0  0  0
   11.3749    4.2507   23.4494 S   0  0  0  0  0  0
   10.6744    3.8196   24.6594 O   0  0  0  0  0  0
   12.7510    4.7522   23.5134 O   0  0  0  0  0  0
   11.3660    2.7951   22.2428 C   0  0  0  0  0  0
   10.2587    1.8005   22.5366 C   0  0  0  0  0  0
   10.5839    0.5332   23.0203 C   0  0  0  0  0  0
    9.5751   -0.3784   23.3034 C   0  0  0  0  0  0
    8.2363   -0.0106   23.1325 C   0  0  0  0  0  0
    7.2068   -0.9458   23.3975 N   0  0  0  0  0  0
    6.4435   -1.5062   22.3942 C   0  0  0  0  0  0
    5.5697   -2.3505   22.6180 O   0  0  0  0  0  0
    6.6037   -1.0490   21.0184 C   0  0  0  0  0  0
    7.7951   -0.8513   20.3083 C   0  0  0  0  0  0
    7.4256   -0.4505   19.0532 N   0  0  0  0  0  0
    6.0624   -0.4509   19.0595 C   0  0  0  0  0  0
    5.5697   -0.8347   20.2101 N   0  0  0  0  0  0
    6.8846   -1.2800   24.8211 C   0  0  1  0  0  0
    7.9495   -2.1252   25.5757 C   0  0  0  0  0  0
    8.3286   -1.8188   26.7073 O   0  0  0  0  0  0
    8.4097   -3.2025   24.9167 N   0  0  0  0  0  0
    9.2770   -4.2355   25.4877 C   0  0  0  0  0  0
    8.5518   -5.5870   25.6112 C   0  0  0  0  0  0
    7.2386   -5.5210   26.3858 C   0  0  0  0  0  0
    6.0266   -5.3254   25.7148 C   0  0  0  0  0  0
    4.8291   -5.2717   26.4294 C   0  0  0  0  0  0
    4.8371   -5.4123   27.8178 C   0  0  0  0  0  0
    6.0431   -5.6024   28.4913 C   0  0  0  0  0  0
    6.0587   -5.7290   29.8375 F   0  0  0  0  0  0
    7.2388   -5.6529   27.7772 C   0  0  0  0  0  0
    6.3888   -0.0183   25.5167 C   0  0  0  0  0  0
    5.0333    0.3175   25.4150 C   0  0  0  0  0  0
    4.5514    1.4813   26.0150 C   0  0  0  0  0  0
    5.4497    2.2917   26.7077 C   0  0  0  0  0  0
    6.7698    2.0002   26.8189 N   0  0  0  0  0  0
    7.2208    0.8664   26.2242 C   0  0  0  0  0  0
    7.9133    1.2686   22.6626 C   0  0  0  0  0  0
    8.9261    2.1622   22.3395 C   0  0  0  0  0  0
   10.1480    6.3606   23.4853 H   0  0  0  0  0  0
   10.9062    6.0806   21.9083 H   0  0  0  0  0  0
    9.3982    5.2218   22.3357 H   0  0  0  0  0  0
   12.3412    2.3225   22.3505 H   0  0  0  0  0  0
   11.3093    3.1576   21.2258 H   0  0  0  0  0  0
   11.6150    0.2485   23.1683 H   0  0  0  0  0  0
    9.8456   -1.3650   23.6467 H   0  0  0  0  0  0
    8.8374   -0.9680   20.5695 H   0  0  0  0  0  0
    8.0234   -0.2383   18.2647 H   0  0  0  0  0  0
    5.5097   -0.1811   18.1708 H   0  0  0  0  0  0
    6.0402   -1.9685   24.8593 H   0  0  0  0  0  0
    8.0768   -3.3621   23.9768 H   0  0  0  0  0  0
    9.5714   -3.9362   26.4963 H   0  0  0  0  0  0
   10.1842   -4.3241   24.8893 H   0  0  0  0  0  0
    9.2133   -6.3127   26.0873 H   0  0  0  0  0  0
    8.3649   -5.9897   24.6155 H   0  0  0  0  0  0
    6.0113   -5.2122   24.6410 H   0  0  0  0  0  0
    3.8970   -5.1167   25.9058 H   0  0  0  0  0  0
    3.9133   -5.3712   28.3737 H   0  0  0  0  0  0
    8.1652   -5.8041   28.3076 H   0  0  0  0  0  0
    4.3588   -0.3184   24.8585 H   0  0  0  0  0  0
    3.5099    1.7505   25.9388 H   0  0  0  0  0  0
    5.1179    3.2018   27.1846 H   0  0  0  0  0  0
    8.2833    0.6891   26.3169 H   0  0  0  0  0  0
    6.8804    1.5568   22.5209 H   0  0  0  0  0  0
    8.6692    3.1374   21.9539 H   0  0  0  0  0  0
  1  2  1  0  0  0
  1 39  1  0  0  0
  1 40  1  0  0  0
  1 41  1  0  0  0
  2  3  2  0  0  0
  2  4  2  0  0  0
  2  5  1  0  0  0
  5  6  1  0  0  0
  5 42  1  0  0  0
  5 43  1  0  0  0
  6 38  2  0  0  0
  6  7  1  0  0  0
  7  8  2  0  0  0
  7 44  1  0  0  0
  8  9  1  0  0  0
  8 45  1  0  0  0
  9 10  1  0  0  0
  9 37  2  0  0  0
 10 11  1  0  0  0
 10 18  1  0  0  0
 11 12  2  0  0  0
 11 13  1  0  0  0
 13 17  1  0  0  0
 13 14  2  0  0  0
 14 15  1  0  0  0
 14 46  1  0  0  0
 15 16  1  0  0  0
 15 47  1  0  0  0
 16 17  2  0  0  0
 16 48  1  0  0  0
 18 19  1  0  0  0
 18 31  1  0  0  0
 18 49  1  0  0  0
 19 20  2  0  0  0
 19 21  1  0  0  0
 21 22  1  0  0  0
 21 50  1  0  0  0
 22 23  1  0  0  0
 22 51  1  0  0  0
 22 52  1  0  0  0
 23 24  1  0  0  0
 23 53  1  0  0  0
 23 54  1  0  0  0
 24 30  2  0  0  0
 24 25  1  0  0  0
 25 26  2  0  0  0
 25 55  1  0  0  0
 26 27  1  0  0  0
 26 56  1  0  0  0
 27 28  2  0  0  0
 27 57  1  0  0  0
 28 29  1  0  0  0
 28 30  1  0  0  0
 30 58  1  0  0  0
 31 36  2  0  0  0
 31 32  1  0  0  0
 32 33  2  0  0  0
 32 59  1  0  0  0
 33 34  1  0  0  0
 33 60  1  0  0  0
 34 35  2  0  0  0
 34 61  1  0  0  0
 35 36  1  0  0  0
 36 62  1  0  0  0
 37 38  1  0  0  0
 37 63  1  0  0  0
 38 64  1  0  0  0
M  END
> <r_i_docking_score>
-3.31735676454132

$$$$
ligprep_5.maegz:219
                    3D
 Schrodinger Suite 2020-4.
 62 65  0  0  1  0            999 V2000
   11.5695    4.5649   23.5901 C   0  0  0  0  0  0
   10.8692    3.3427   23.4190 O   0  0  0  0  0  0
    9.4536    3.4980   23.3739 C   0  0  0  0  0  0
    8.7906    2.2044   22.9163 C   0  0  0  0  0  0
    7.5690    1.8117   23.4715 C   0  0  0  0  0  0
    6.9552    0.6329   23.0533 C   0  0  0  0  0  0
    7.5584   -0.1470   22.0628 C   0  0  0  0  0  0
    6.9510   -1.3562   21.6487 N   0  0  0  0  0  0
    6.1079   -1.3618   20.5472 C   0  0  0  0  0  0
    5.5915   -2.3893   20.0884 O   0  0  0  0  0  0
    5.8437   -0.1331   19.8130 C   0  0  0  0  0  0
    5.3266    1.0692   20.3090 C   0  0  0  0  0  0
    5.1685    1.8907   19.2277 N   0  0  0  0  0  0
    5.5697    1.1476   18.1537 C   0  0  0  0  0  0
    5.9701   -0.0530   18.4912 N   0  0  0  0  0  0
    7.4669   -2.6648   22.2208 C   0  0  1  0  0  0
    8.4040   -2.5873   23.4762 C   0  0  0  0  0  0
    9.4786   -1.9928   23.3943 O   0  0  0  0  0  0
    8.0392   -3.2537   24.5883 N   0  0  0  0  0  0
    8.7357   -3.2089   25.8719 C   0  0  0  0  0  0
    8.7610   -1.7938   26.5148 C   0  0  0  0  0  0
    7.4234   -1.0513   26.6163 C   0  0  0  0  0  0
    7.4325    0.3445   26.7083 C   0  0  0  0  0  0
    6.2386    1.0614   26.7899 C   0  0  0  0  0  0
    5.0192    0.3862   26.7774 C   0  0  0  0  0  0
    4.9962   -1.0047   26.6958 C   0  0  0  0  0  0
    3.8153   -1.6618   26.6846 F   0  0  0  0  0  0
    6.1909   -1.7203   26.6252 C   0  0  0  0  0  0
    6.4019   -3.7331   22.4086 C   0  0  0  0  0  0
    6.6851   -5.0527   22.0425 C   0  0  0  0  0  0
    5.7556   -6.0530   22.3088 C   0  0  0  0  0  0
    4.5564   -5.7071   22.9320 C   0  0  0  0  0  0
    4.2534   -4.4337   23.2881 N   0  0  0  0  0  0
    5.1701   -3.4677   23.0256 C   0  0  0  0  0  0
    8.7745    0.2464   21.5024 C   0  0  0  0  0  0
    9.3898    1.4195   21.9280 C   0  0  0  0  0  0
   12.6421    4.3703   23.5999 H   0  0  0  0  0  0
   11.3666    5.2586   22.7721 H   0  0  0  0  0  0
   11.3067    5.0460   24.5334 H   0  0  0  0  0  0
    9.1647    4.2875   22.6775 H   0  0  0  0  0  0
    9.0911    3.7786   24.3646 H   0  0  0  0  0  0
    7.0947    2.4146   24.2317 H   0  0  0  0  0  0
    6.0175    0.3268   23.4950 H   0  0  0  0  0  0
    5.0394    1.3935   21.2986 H   0  0  0  0  0  0
    4.8144    2.8412   19.2171 H   0  0  0  0  0  0
    5.5277    1.5649   17.1576 H   0  0  0  0  0  0
    8.1584   -3.0166   21.4540 H   0  0  0  0  0  0
    7.1748   -3.7753   24.5566 H   0  0  0  0  0  0
    9.7294   -3.6520   25.7719 H   0  0  0  0  0  0
    8.1556   -3.8749   26.5121 H   0  0  0  0  0  0
    9.4398   -1.1728   25.9277 H   0  0  0  0  0  0
    9.2034   -1.8368   27.5076 H   0  0  0  0  0  0
    8.3702    0.8804   26.7078 H   0  0  0  0  0  0
    6.2597    2.1389   26.8547 H   0  0  0  0  0  0
    4.0927    0.9377   26.8334 H   0  0  0  0  0  0
    6.1398   -2.7959   26.5688 H   0  0  0  0  0  0
    7.6285   -5.3026   21.5765 H   0  0  0  0  0  0
    5.9698   -7.0778   22.0442 H   0  0  0  0  0  0
    3.8140   -6.4617   23.1498 H   0  0  0  0  0  0
    4.9133   -2.4658   23.3409 H   0  0  0  0  0  0
    9.2441   -0.3751   20.7538 H   0  0  0  0  0  0
   10.3385    1.7133   21.5044 H   0  0  0  0  0  0
  1  2  1  0  0  0
  1 37  1  0  0  0
  1 38  1  0  0  0
  1 39  1  0  0  0
  2  3  1  0  0  0
  3  4  1  0  0  0
  3 40  1  0  0  0
  3 41  1  0  0  0
  4 36  2  0  0  0
  4  5  1  0  0  0
  5  6  2  0  0  0
  5 42  1  0  0  0
  6  7  1  0  0  0
  6 43  1  0  0  0
  7  8  1  0  0  0
  7 35  2  0  0  0
  8  9  1  0  0  0
  8 16  1  0  0  0
  9 10  2  0  0  0
  9 11  1  0  0  0
 11 15  1  0  0  0
 11 12  2  0  0  0
 12 13  1  0  0  0
 12 44  1  0  0  0
 13 14  1  0  0  0
 13 45  1  0  0  0
 14 15  2  0  0  0
 14 46  1  0  0  0
 16 17  1  0  0  0
 16 29  1  0  0  0
 16 47  1  0  0  0
 17 18  2  0  0  0
 17 19  1  0  0  0
 19 20  1  0  0  0
 19 48  1  0  0  0
 20 21  1  0  0  0
 20 49  1  0  0  0
 20 50  1  0  0  0
 21 22  1  0  0  0
 21 51  1  0  0  0
 21 52  1  0  0  0
 22 28  2  0  0  0
 22 23  1  0  0  0
 23 24  2  0  0  0
 23 53  1  0  0  0
 24 25  1  0  0  0
 24 54  1  0  0  0
 25 26  2  0  0  0
 25 55  1  0  0  0
 26 27  1  0  0  0
 26 28  1  0  0  0
 28 56  1  0  0  0
 29 34  2  0  0  0
 29 30  1  0  0  0
 30 31  2  0  0  0
 30 57  1  0  0  0
 31 32  1  0  0  0
 31 58  1  0  0  0
 32 33  2  0  0  0
 32 59  1  0  0  0
 33 34  1  0  0  0
 34 60  1  0  0  0
 35 36  1  0  0  0
 35 61  1  0  0  0
 36 62  1  0  0  0
M  END
> <r_i_docking_score>
-3.76705005934464

$$$$
ligprep_5.maegz:220
                    3D
 Schrodinger Suite 2020-4.
 69 73  0  0  1  0            999 V2000
    9.7970   -1.9432   23.0406 O   0  0  0  0  0  0
    8.7901   -2.6452   23.1281 C   0  0  0  0  0  0
    8.6537   -3.5675   24.0961 N   0  0  0  0  0  0
    9.5457   -3.6965   25.2388 C   0  0  0  0  0  0
    9.0627   -4.7441   26.2657 C   0  0  0  0  0  0
    7.6414   -4.6078   26.8255 C   0  0  0  0  0  0
    7.1665   -5.6235   27.6602 C   0  0  0  0  0  0
    5.8739   -5.5810   28.1805 C   0  0  0  0  0  0
    5.0378   -4.5094   27.8717 C   0  0  0  0  0  0
    5.5016   -3.4788   27.0562 C   0  0  0  0  0  0
    4.6952   -2.4347   26.7618 F   0  0  0  0  0  0
    6.7986   -3.5206   26.5450 C   0  0  0  0  0  0
    7.6621   -2.5523   22.0472 C   0  0  1  0  0  0
    6.5718   -3.5983   22.2571 C   0  0  0  0  0  0
    5.3936   -3.3270   22.9661 C   0  0  0  0  0  0
    4.4783   -4.3551   23.2024 C   0  0  0  0  0  0
    4.7654   -5.6305   22.7115 C   0  0  0  0  0  0
    5.8920   -5.9153   22.0123 N   0  0  0  0  0  0
    6.7713   -4.9071   21.7981 C   0  0  0  0  0  0
    7.1501   -1.1826   21.6440 N   0  0  0  0  0  0
    6.3500   -1.0808   20.5208 C   0  0  0  0  0  0
    5.9694   -2.0820   19.9093 O   0  0  0  0  0  0
    5.9467    0.2062   19.9480 C   0  0  0  0  0  0
    5.5695    1.3979   20.5904 C   0  0  0  0  0  0
    5.1693    2.2619   19.6086 N   0  0  0  0  0  0
    5.2790    1.5511   18.4504 C   0  0  0  0  0  0
    5.7312    0.3414   18.6402 N   0  0  0  0  0  0
    7.6090   -0.0244   22.3056 C   0  0  0  0  0  0
    6.8685    0.5199   23.3558 C   0  0  0  0  0  0
    7.2865    1.7075   23.9526 C   0  0  0  0  0  0
    8.4995    2.3159   23.5815 C   0  0  0  0  0  0
    9.3016    1.6907   22.6096 C   0  0  0  0  0  0
    8.8272    0.5572   21.9451 C   0  0  0  0  0  0
   10.6816    2.2660   22.3384 C   0  0  0  0  0  0
   11.2342    2.9960   23.5862 C   0  0  0  0  0  0
   10.2183    4.0126   24.1612 C   0  0  0  0  0  0
   10.5842    5.0911   24.6365 O   0  0  0  0  0  0
    8.9241    3.5686   24.1106 N   0  0  0  0  0  0
    7.8968    4.4641   24.6962 C   0  0  0  0  0  0
    7.8042    4.4199   26.2322 C   0  0  0  0  0  0
    6.8688    5.2445   26.6984 F   0  0  0  0  0  0
    7.5655    3.1994   26.7077 F   0  0  0  0  0  0
    7.8352   -4.1604   24.0847 H   0  0  0  0  0  0
    9.5257   -2.7175   25.7195 H   0  0  0  0  0  0
   10.5666   -3.9061   24.9111 H   0  0  0  0  0  0
    9.7590   -4.7619   27.1051 H   0  0  0  0  0  0
    9.1471   -5.7308   25.8065 H   0  0  0  0  0  0
    7.8086   -6.4529   27.9089 H   0  0  0  0  0  0
    5.5219   -6.3797   28.8172 H   0  0  0  0  0  0
    4.0335   -4.4734   28.2664 H   0  0  0  0  0  0
    7.1238   -2.6947   25.9323 H   0  0  0  0  0  0
    8.2351   -2.8510   21.1688 H   0  0  0  0  0  0
    5.1997   -2.3349   23.3481 H   0  0  0  0  0  0
    3.5720   -4.1670   23.7581 H   0  0  0  0  0  0
    4.0839   -6.4535   22.8709 H   0  0  0  0  0  0
    7.6713   -5.1719   21.2614 H   0  0  0  0  0  0
    5.5165    1.7081   21.6204 H   0  0  0  0  0  0
    4.8549    3.2233   19.7101 H   0  0  0  0  0  0
    5.0246    2.0133   17.5080 H   0  0  0  0  0  0
    5.9352    0.0666   23.6593 H   0  0  0  0  0  0
    6.6524    2.1329   24.7145 H   0  0  0  0  0  0
    9.4288    0.0933   21.1761 H   0  0  0  0  0  0
   11.3665    1.4694   22.0448 H   0  0  0  0  0  0
   10.6431    2.9614   21.5079 H   0  0  0  0  0  0
   12.1596    3.5205   23.3471 H   0  0  0  0  0  0
   11.4583    2.2828   24.3795 H   0  0  0  0  0  0
    8.0872    5.4916   24.3795 H   0  0  0  0  0  0
    6.9165    4.2378   24.2779 H   0  0  0  0  0  0
    8.7414    4.7456   26.6837 H   0  0  0  0  0  0
  1  2  2  0  0  0
  2  3  1  0  0  0
  2 13  1  0  0  0
  3  4  1  0  0  0
  3 43  1  0  0  0
  4  5  1  0  0  0
  4 44  1  0  0  0
  4 45  1  0  0  0
  5  6  1  0  0  0
  5 46  1  0  0  0
  5 47  1  0  0  0
  6 12  2  0  0  0
  6  7  1  0  0  0
  7  8  2  0  0  0
  7 48  1  0  0  0
  8  9  1  0  0  0
  8 49  1  0  0  0
  9 10  2  0  0  0
  9 50  1  0  0  0
 10 11  1  0  0  0
 10 12  1  0  0  0
 12 51  1  0  0  0
 13 14  1  0  0  0
 13 20  1  0  0  0
 13 52  1  0  0  0
 14 19  2  0  0  0
 14 15  1  0  0  0
 15 16  2  0  0  0
 15 53  1  0  0  0
 16 17  1  0  0  0
 16 54  1  0  0  0
 17 18  2  0  0  0
 17 55  1  0  0  0
 18 19  1  0  0  0
 19 56  1  0  0  0
 20 21  1  0  0  0
 20 28  1  0  0  0
 21 22  2  0  0  0
 21 23  1  0  0  0
 23 27  1  0  0  0
 23 24  2  0  0  0
 24 25  1  0  0  0
 24 57  1  0  0  0
 25 26  1  0  0  0
 25 58  1  0  0  0
 26 27  2  0  0  0
 26 59  1  0  0  0
 28 33  2  0  0  0
 28 29  1  0  0  0
 29 30  2  0  0  0
 29 60  1  0  0  0
 30 31  1  0  0  0
 30 61  1  0  0  0
 31 38  1  0  0  0
 31 32  2  0  0  0
 32 33  1  0  0  0
 32 34  1  0  0  0
 33 62  1  0  0  0
 34 35  1  0  0  0
 34 63  1  0  0  0
 34 64  1  0  0  0
 35 36  1  0  0  0
 35 65  1  0  0  0
 35 66  1  0  0  0
 36 37  2  0  0  0
 36 38  1  0  0  0
 38 39  1  0  0  0
 39 40  1  0  0  0
 39 67  1  0  0  0
 39 68  1  0  0  0
 40 41  1  0  0  0
 40 42  1  0  0  0
 40 69  1  0  0  0
M  END
> <r_i_docking_score>
-4.33523657903676

$$$$
ligprep_5.maegz:221
                    3D
 Schrodinger Suite 2020-4.
 63 67  0  0  1  0            999 V2000
    9.5405   -2.7621   24.0157 O   0  0  0  0  0  0
    8.6503   -3.5822   23.7987 C   0  0  0  0  0  0
    8.4692   -4.6295   24.6298 N   0  0  0  0  0  0
    9.1099   -4.7901   25.9250 C   0  0  0  0  0  0
    8.2713   -4.1514   27.0470 C   0  0  0  0  0  0
    7.6168   -2.8081   26.7079 C   0  0  0  0  0  0
    8.3685   -1.6273   26.7090 C   0  0  0  0  0  0
    7.7705   -0.4074   26.3941 C   0  0  0  0  0  0
    6.4166   -0.3602   26.0638 C   0  0  0  0  0  0
    5.6619   -1.5329   26.0542 C   0  0  0  0  0  0
    4.3513   -1.4908   25.7246 F   0  0  0  0  0  0
    6.2576   -2.7504   26.3819 C   0  0  0  0  0  0
    7.7170   -3.4878   22.5257 C   0  0  1  0  0  0
    6.5779   -4.4717   22.6877 C   0  0  0  0  0  0
    5.3866   -4.1349   23.3476 C   0  0  0  0  0  0
    4.4749   -5.1379   23.6706 C   0  0  0  0  0  0
    4.8040   -6.4528   23.3482 C   0  0  0  0  0  0
    5.9540   -6.7962   22.7080 N   0  0  0  0  0  0
    6.8000   -5.8092   22.3538 C   0  0  0  0  0  0
    7.3509   -2.1180   21.9733 N   0  0  0  0  0  0
    6.3426   -1.9502   21.0351 C   0  0  0  0  0  0
    5.5713   -2.8525   20.6850 O   0  0  0  0  0  0
    6.1942   -0.6870   20.3217 C   0  0  0  0  0  0
    6.2068   -0.5686   18.9285 C   0  0  0  0  0  0
    5.9650    0.7478   18.6560 N   0  0  0  0  0  0
    5.8295    1.3480   19.8764 C   0  0  0  0  0  0
    5.9694    0.5030   20.8711 N   0  0  0  0  0  0
    8.3309   -1.1135   22.0947 C   0  0  0  0  0  0
    8.1193    0.0316   22.8688 C   0  0  0  0  0  0
    9.1473    0.9592   23.0152 C   0  0  0  0  0  0
   10.3912    0.7143   22.4252 C   0  0  0  0  0  0
   11.5343    1.6945   22.5822 C   0  0  0  0  0  0
   11.3733    3.1872   22.2581 C   0  0  0  0  0  0
   12.0733    3.5605   23.5079 O   0  0  0  0  0  0
   11.9698    2.1506   23.9687 C   0  0  0  0  0  0
   10.6065   -0.4510   21.6968 C   0  0  0  0  0  0
    9.5716   -1.3454   21.5056 C   0  0  0  0  0  0
    7.7560   -5.3030   24.3912 H   0  0  0  0  0  0
   10.1191   -4.3735   25.9009 H   0  0  0  0  0  0
    9.1945   -5.8665   26.0926 H   0  0  0  0  0  0
    8.9171   -4.0526   27.9079 H   0  0  0  0  0  0
    7.4939   -4.8520   27.3614 H   0  0  0  0  0  0
    9.4182   -1.6482   26.9591 H   0  0  0  0  0  0
    8.3594    0.4981   26.4054 H   0  0  0  0  0  0
    5.9505    0.5800   25.8115 H   0  0  0  0  0  0
    5.6598   -3.6500   26.3667 H   0  0  0  0  0  0
    8.3500   -3.8913   21.7350 H   0  0  0  0  0  0
    5.1884   -3.1119   23.6348 H   0  0  0  0  0  0
    3.5522   -4.9042   24.1819 H   0  0  0  0  0  0
    4.1321   -7.2629   23.5866 H   0  0  0  0  0  0
    7.7211   -6.1195   21.8796 H   0  0  0  0  0  0
    6.3465   -1.2889   18.1338 H   0  0  0  0  0  0
    5.8867    1.1832   17.7465 H   0  0  0  0  0  0
    5.6140    2.4059   19.9421 H   0  0  0  0  0  0
    7.1662    0.1959   23.3495 H   0  0  0  0  0  0
    8.9790    1.8520   23.5990 H   0  0  0  0  0  0
   12.4272    1.3404   22.0644 H   0  0  0  0  0  0
   11.9449    3.5485   21.4013 H   0  0  0  0  0  0
   10.3580    3.5847   22.3082 H   0  0  0  0  0  0
   11.2106    2.0913   24.7508 H   0  0  0  0  0  0
   12.9430    1.7763   24.2837 H   0  0  0  0  0  0
   11.5691   -0.6724   21.2621 H   0  0  0  0  0  0
    9.7532   -2.2470   20.9389 H   0  0  0  0  0  0
  1  2  2  0  0  0
  2  3  1  0  0  0
  2 13  1  0  0  0
  3  4  1  0  0  0
  3 38  1  0  0  0
  4  5  1  0  0  0
  4 39  1  0  0  0
  4 40  1  0  0  0
  5  6  1  0  0  0
  5 41  1  0  0  0
  5 42  1  0  0  0
  6 12  2  0  0  0
  6  7  1  0  0  0
  7  8  2  0  0  0
  7 43  1  0  0  0
  8  9  1  0  0  0
  8 44  1  0  0  0
  9 10  2  0  0  0
  9 45  1  0  0  0
 10 11  1  0  0  0
 10 12  1  0  0  0
 12 46  1  0  0  0
 13 14  1  0  0  0
 13 20  1  0  0  0
 13 47  1  0  0  0
 14 19  2  0  0  0
 14 15  1  0  0  0
 15 16  2  0  0  0
 15 48  1  0  0  0
 16 17  1  0  0  0
 16 49  1  0  0  0
 17 18  2  0  0  0
 17 50  1  0  0  0
 18 19  1  0  0  0
 19 51  1  0  0  0
 20 21  1  0  0  0
 20 28  1  0  0  0
 21 22  2  0  0  0
 21 23  1  0  0  0
 23 27  1  0  0  0
 23 24  2  0  0  0
 24 25  1  0  0  0
 24 52  1  0  0  0
 25 26  1  0  0  0
 25 53  1  0  0  0
 26 27  2  0  0  0
 26 54  1  0  0  0
 28 37  2  0  0  0
 28 29  1  0  0  0
 29 30  2  0  0  0
 29 55  1  0  0  0
 30 31  1  0  0  0
 30 56  1  0  0  0
 31 32  1  0  0  0
 31 36  2  0  0  0
 32 35  1  0  0  0
 32 33  1  0  0  0
 32 57  1  0  0  0
 33 34  1  0  0  0
 33 58  1  0  0  0
 33 59  1  0  0  0
 34 35  1  0  0  0
 35 60  1  0  0  0
 35 61  1  0  0  0
 36 37  1  0  0  0
 36 62  1  0  0  0
 37 63  1  0  0  0
M  END
> <r_i_docking_score>
-5.2910810629112

$$$$
ligprep_5.maegz:222
                    3D
 Schrodinger Suite 2020-4.
 65 69  0  0  1  0            999 V2000
   10.4766   -0.4514   25.1079 O   0  0  0  0  0  0
    9.4237   -0.0149   24.6388 C   0  0  0  0  0  0
    8.2419   -0.6284   24.8286 N   0  0  0  0  0  0
    8.0783   -1.8674   25.5881 C   0  0  0  0  0  0
    8.5918   -3.1557   24.8949 C   0  0  0  0  0  0
    7.7103   -3.7684   23.8004 C   0  0  0  0  0  0
    7.6198   -5.1639   23.7087 C   0  0  0  0  0  0
    6.8595   -5.7704   22.7084 C   0  0  0  0  0  0
    6.1674   -4.9834   21.7927 C   0  0  0  0  0  0
    6.2459   -3.5943   21.8724 C   0  0  0  0  0  0
    5.5696   -2.8408   20.9783 F   0  0  0  0  0  0
    7.0181   -2.9872   22.8655 C   0  0  0  0  0  0
    9.4251    1.2699   23.7497 C   0  0  1  0  0  0
   10.7815    1.7618   23.2472 C   0  0  0  0  0  0
   11.8233    0.9013   22.8578 C   0  0  0  0  0  0
   13.0349    1.4238   22.4014 C   0  0  0  0  0  0
   13.1697    2.8101   22.3230 C   0  0  0  0  0  0
   12.1916    3.6680   22.7027 N   0  0  0  0  0  0
   11.0238    3.1382   23.1490 C   0  0  0  0  0  0
    8.3842    1.3132   22.6724 N   0  0  0  0  0  0
    8.4440    0.4621   21.5845 C   0  0  0  0  0  0
    9.3294   -0.3942   21.5070 O   0  0  0  0  0  0
    7.4572    0.5126   20.4898 C   0  0  0  0  0  0
    7.4419   -0.3957   19.4267 C   0  0  0  0  0  0
    6.4205   -0.0290   18.5969 N   0  0  0  0  0  0
    5.8729    1.0773   19.1764 C   0  0  0  0  0  0
    6.4783    1.3986   20.2924 N   0  0  0  0  0  0
    7.3528    2.2564   22.8338 C   0  0  0  0  0  0
    7.5034    3.5437   22.3080 C   0  0  0  0  0  0
    6.4131    4.4092   22.2849 C   0  0  0  0  0  0
    5.1753    3.9901   22.7811 C   0  0  0  0  0  0
    3.9584    4.9021   22.6456 C   0  0  0  0  0  0
    2.7949    4.2632   22.0334 N   0  0  0  0  0  0
    2.5258    4.1210   20.6951 C   0  0  0  0  0  0
    1.3623    3.3801   20.6293 C   0  0  0  0  0  0
    1.0313    3.1155   21.9619 C   0  0  0  0  0  0
    1.8975    3.6290   22.8061 N   0  0  0  0  0  0
    5.0503    2.7278   23.3675 C   0  0  0  0  0  0
    6.1344    1.8575   23.3919 C   0  0  0  0  0  0
    7.4192   -0.2289   24.4049 H   0  0  0  0  0  0
    7.0103   -1.9845   25.7760 H   0  0  0  0  0  0
    8.5034   -1.7783   26.5894 H   0  0  0  0  0  0
    8.7150   -3.9011   25.6848 H   0  0  0  0  0  0
    9.6003   -3.0069   24.5041 H   0  0  0  0  0  0
    8.1558   -5.7875   24.4089 H   0  0  0  0  0  0
    6.8048   -6.8480   22.6449 H   0  0  0  0  0  0
    5.5758   -5.4498   21.0194 H   0  0  0  0  0  0
    7.0792   -1.9112   22.8857 H   0  0  0  0  0  0
    9.1173    2.0125   24.4889 H   0  0  0  0  0  0
   11.6932   -0.1713   22.8886 H   0  0  0  0  0  0
   13.8366    0.7715   22.0909 H   0  0  0  0  0  0
   14.0898    3.2537   21.9723 H   0  0  0  0  0  0
   10.2643    3.8528   23.4300 H   0  0  0  0  0  0
    8.0695   -1.2456   19.1964 H   0  0  0  0  0  0
    6.1604   -0.4574   17.7180 H   0  0  0  0  0  0
    5.0475    1.5966   18.7101 H   0  0  0  0  0  0
    8.4363    3.8499   21.8559 H   0  0  0  0  0  0
    6.5169    5.3790   21.8165 H   0  0  0  0  0  0
    3.6808    5.2757   23.6314 H   0  0  0  0  0  0
    4.2017    5.7779   22.0413 H   0  0  0  0  0  0
    3.1698    4.5506   19.9387 H   0  0  0  0  0  0
    0.8333    3.0710   19.7397 H   0  0  0  0  0  0
    0.1766    2.5507   22.3032 H   0  0  0  0  0  0
    4.0990    2.3915   23.7527 H   0  0  0  0  0  0
    5.9978    0.8584   23.7761 H   0  0  0  0  0  0
  1  2  2  0  0  0
  2  3  1  0  0  0
  2 13  1  0  0  0
  3  4  1  0  0  0
  3 40  1  0  0  0
  4  5  1  0  0  0
  4 41  1  0  0  0
  4 42  1  0  0  0
  5  6  1  0  0  0
  5 43  1  0  0  0
  5 44  1  0  0  0
  6 12  2  0  0  0
  6  7  1  0  0  0
  7  8  2  0  0  0
  7 45  1  0  0  0
  8  9  1  0  0  0
  8 46  1  0  0  0
  9 10  2  0  0  0
  9 47  1  0  0  0
 10 11  1  0  0  0
 10 12  1  0  0  0
 12 48  1  0  0  0
 13 14  1  0  0  0
 13 20  1  0  0  0
 13 49  1  0  0  0
 14 19  2  0  0  0
 14 15  1  0  0  0
 15 16  2  0  0  0
 15 50  1  0  0  0
 16 17  1  0  0  0
 16 51  1  0  0  0
 17 18  2  0  0  0
 17 52  1  0  0  0
 18 19  1  0  0  0
 19 53  1  0  0  0
 20 21  1  0  0  0
 20 28  1  0  0  0
 21 22  2  0  0  0
 21 23  1  0  0  0
 23 27  1  0  0  0
 23 24  2  0  0  0
 24 25  1  0  0  0
 24 54  1  0  0  0
 25 26  1  0  0  0
 25 55  1  0  0  0
 26 27  2  0  0  0
 26 56  1  0  0  0
 28 39  2  0  0  0
 28 29  1  0  0  0
 29 30  2  0  0  0
 29 57  1  0  0  0
 30 31  1  0  0  0
 30 58  1  0  0  0
 31 32  1  0  0  0
 31 38  2  0  0  0
 32 33  1  0  0  0
 32 59  1  0  0  0
 32 60  1  0  0  0
 33 37  1  0  0  0
 33 34  1  0  0  0
 34 35  2  0  0  0
 34 61  1  0  0  0
 35 36  1  0  0  0
 35 62  1  0  0  0
 36 37  2  0  0  0
 36 63  1  0  0  0
 38 39  1  0  0  0
 38 64  1  0  0  0
 39 65  1  0  0  0
M  END
> <r_i_docking_score>
-4.08997327217466

$$$$
ligprep_5.maegz:223
                    3D
 Schrodinger Suite 2020-4.
 53 57  0  0  1  0            999 V2000
    7.8715    3.3467   24.1591 O   0  0  0  0  0  0
    7.7998    2.3076   23.5028 C   0  0  0  0  0  0
    8.8635    1.6816   22.9587 N   0  0  0  0  0  0
   10.2232    2.0377   22.9754 C   0  0  0  0  0  0
   10.6668    3.3644   23.1078 C   0  0  0  0  0  0
   11.9640    3.7394   23.0250 N   0  0  0  0  0  0
   12.8762    2.7688   22.8084 C   0  0  0  0  0  0
   12.5771    1.3935   22.6994 C   0  0  0  0  0  0
   13.5694    0.4136   22.4584 C   0  0  0  0  0  0
   13.2095   -0.9230   22.3079 C   0  0  0  0  0  0
   11.8784   -1.3128   22.3880 C   0  0  0  0  0  0
   10.8803   -0.3704   22.6212 C   0  0  0  0  0  0
   11.2023    1.0114   22.7747 C   0  0  0  0  0  0
    6.4231    1.6085   23.3540 C   0  0  2  0  0  0
    6.1022    0.7754   24.6109 C   0  0  0  0  0  0
    6.9420   -0.5143   24.6681 C   0  0  0  0  0  0
    6.8455   -1.3009   23.4279 N   0  0  0  0  0  0
    7.5026   -2.6100   23.5918 C   0  0  0  0  0  0
    6.5727   -3.7898   23.3076 C   0  0  0  0  0  0
    7.0982   -4.9478   22.7261 C   0  0  0  0  0  0
    6.2782   -6.0515   22.5042 C   0  0  0  0  0  0
    4.9396   -6.0017   22.8881 C   0  0  0  0  0  0
    4.4141   -4.8663   23.4988 C   0  0  0  0  0  0
    5.2347   -3.7647   23.7206 C   0  0  0  0  0  0
    6.6299   -0.6758   22.1893 C   0  0  0  0  0  0
    6.6110   -1.4407   21.0148 C   0  0  0  0  0  0
    6.3051   -0.8716   19.7850 C   0  0  0  0  0  0
    6.0113    0.4791   19.7037 C   0  0  0  0  0  0
    5.5703    1.1468   18.1804 Cl  0  0  0  0  0  0
    6.0580    1.2706   20.8490 C   0  0  0  0  0  0
    6.3425    0.7127   22.1067 C   0  0  0  0  0  0
    8.6578    0.7995   22.5158 H   0  0  0  0  0  0
    9.9716    4.1818   23.2246 H   0  0  0  0  0  0
   13.9021    3.0972   22.7111 H   0  0  0  0  0  0
   14.6001    0.7195   22.3626 H   0  0  0  0  0  0
   13.9676   -1.6656   22.1128 H   0  0  0  0  0  0
   11.6146   -2.3538   22.2566 H   0  0  0  0  0  0
    9.8531   -0.6986   22.6715 H   0  0  0  0  0  0
    5.7193    2.4383   23.2706 H   0  0  0  0  0  0
    6.2498    1.3504   25.5270 H   0  0  0  0  0  0
    5.0474    0.4940   24.6032 H   0  0  0  0  0  0
    7.9878   -0.2102   24.7295 H   0  0  0  0  0  0
    6.8047   -1.1106   25.5714 H   0  0  0  0  0  0
    8.3894   -2.6604   22.9584 H   0  0  0  0  0  0
    7.8849   -2.7519   24.6035 H   0  0  0  0  0  0
    8.1381   -4.9912   22.4348 H   0  0  0  0  0  0
    6.6752   -6.9433   22.0434 H   0  0  0  0  0  0
    4.3007   -6.8529   22.7100 H   0  0  0  0  0  0
    3.3782   -4.8411   23.8035 H   0  0  0  0  0  0
    4.8274   -2.8897   24.2061 H   0  0  0  0  0  0
    6.8141   -2.4981   21.0352 H   0  0  0  0  0  0
    6.2817   -1.4850   18.8961 H   0  0  0  0  0  0
    5.8395    2.3260   20.7650 H   0  0  0  0  0  0
  1  2  2  0  0  0
  2  3  1  0  0  0
  2 14  1  0  0  0
  3  4  1  0  0  0
  3 32  1  0  0  0
  4 13  2  0  0  0
  4  5  1  0  0  0
  5  6  2  0  0  0
  5 33  1  0  0  0
  6  7  1  0  0  0
  7  8  2  0  0  0
  7 34  1  0  0  0
  8 13  1  0  0  0
  8  9  1  0  0  0
  9 10  2  0  0  0
  9 35  1  0  0  0
 10 11  1  0  0  0
 10 36  1  0  0  0
 11 12  2  0  0  0
 11 37  1  0  0  0
 12 13  1  0  0  0
 12 38  1  0  0  0
 14 31  1  0  0  0
 14 15  1  0  0  0
 14 39  1  0  0  0
 15 16  1  0  0  0
 15 40  1  0  0  0
 15 41  1  0  0  0
 16 17  1  0  0  0
 16 42  1  0  0  0
 16 43  1  0  0  0
 17 18  1  0  0  0
 17 25  1  0  0  0
 18 19  1  0  0  0
 18 44  1  0  0  0
 18 45  1  0  0  0
 19 24  2  0  0  0
 19 20  1  0  0  0
 20 21  2  0  0  0
 20 46  1  0  0  0
 21 22  1  0  0  0
 21 47  1  0  0  0
 22 23  2  0  0  0
 22 48  1  0  0  0
 23 24  1  0  0  0
 23 49  1  0  0  0
 24 50  1  0  0  0
 25 31  2  0  0  0
 25 26  1  0  0  0
 26 27  2  0  0  0
 26 51  1  0  0  0
 27 28  1  0  0  0
 27 52  1  0  0  0
 28 29  1  0  0  0
 28 30  2  0  0  0
 30 31  1  0  0  0
 30 53  1  0  0  0
M  END
> <r_i_docking_score>
-6.64597591543216

$$$$
ligprep_5.maegz:224
                    3D
 Schrodinger Suite 2020-4.
 50 54  0  0  1  0            999 V2000
    7.4410   -0.0805   25.6264 O   0  0  0  0  0  0
    7.7791    0.9525   25.0466 C   0  0  0  0  0  0
    8.8191    1.0160   24.1854 N   0  0  0  0  0  0
    9.6672   -0.0124   23.7310 C   0  0  0  0  0  0
    9.2737   -1.3600   23.6807 C   0  0  0  0  0  0
   10.0560   -2.3622   23.2193 N   0  0  0  0  0  0
   11.2892   -2.0361   22.7798 C   0  0  0  0  0  0
   11.8156   -0.7266   22.7699 C   0  0  0  0  0  0
   13.1201   -0.4346   22.3077 C   0  0  0  0  0  0
   13.5768    0.8786   22.3079 C   0  0  0  0  0  0
   12.7697    1.9154   22.7580 C   0  0  0  0  0  0
   11.4872    1.6562   23.2334 C   0  0  0  0  0  0
   10.9757    0.3248   23.2534 C   0  0  0  0  0  0
    7.0249    2.2784   25.3628 C   0  0  2  0  0  0
    5.5002    2.0599   25.4642 C   0  0  0  0  0  0
    4.8705    1.8600   24.0747 C   0  0  0  0  0  0
    5.2230    2.9421   23.1383 N   0  0  0  0  0  0
    4.3953    2.8700   21.9227 C   0  0  0  0  0  0
    5.0261    2.1131   20.7603 C   0  0  0  0  0  0
    5.9207    1.1503   20.8394 N   0  0  0  0  0  0
    6.1060    0.7411   19.5935 C   0  0  0  0  0  0
    5.3234    1.4477   18.6919 C   0  0  0  0  0  0
    4.6442    2.3457   19.4645 N   0  0  0  0  0  0
    6.4385    3.6305   23.2507 C   0  0  0  0  0  0
    6.7843    4.6065   22.3042 C   0  0  0  0  0  0
    7.9707    5.3240   22.4048 C   0  0  0  0  0  0
    8.8367    5.0851   23.4650 C   0  0  0  0  0  0
   10.3300    5.9470   23.5759 Cl  0  0  0  0  0  0
    8.5022    4.1358   24.4276 C   0  0  0  0  0  0
    7.3116    3.3989   24.3470 C   0  0  0  0  0  0
    9.0242    1.9343   23.8217 H   0  0  0  0  0  0
    8.2891   -1.6711   23.9940 H   0  0  0  0  0  0
   11.8922   -2.8527   22.4118 H   0  0  0  0  0  0
   13.7502   -1.2338   21.9455 H   0  0  0  0  0  0
   14.5642    1.1040   21.9299 H   0  0  0  0  0  0
   13.1422    2.9291   22.7414 H   0  0  0  0  0  0
   10.8857    2.4793   23.5852 H   0  0  0  0  0  0
    7.4200    2.5410   26.3454 H   0  0  0  0  0  0
    5.0372    2.9361   25.9219 H   0  0  0  0  0  0
    5.2429    1.2194   26.1113 H   0  0  0  0  0  0
    3.8178    1.5827   24.0780 H   0  0  0  0  0  0
    5.3663    0.9813   23.6559 H   0  0  0  0  0  0
    4.1650    3.8924   21.6176 H   0  0  0  0  0  0
    3.4215    2.4308   22.1417 H   0  0  0  0  0  0
    6.7940   -0.0588   19.3524 H   0  0  0  0  0  0
    5.1913    1.4113   17.6193 H   0  0  0  0  0  0
    3.9940    3.0522   19.1424 H   0  0  0  0  0  0
    6.1361    4.8152   21.4650 H   0  0  0  0  0  0
    8.2252    6.0518   21.6451 H   0  0  0  0  0  0
    9.1910    3.9549   25.2418 H   0  0  0  0  0  0
  1  2  2  0  0  0
  2  3  1  0  0  0
  2 14  1  0  0  0
  3  4  1  0  0  0
  3 31  1  0  0  0
  4 13  2  0  0  0
  4  5  1  0  0  0
  5  6  2  0  0  0
  5 32  1  0  0  0
  6  7  1  0  0  0
  7  8  2  0  0  0
  7 33  1  0  0  0
  8 13  1  0  0  0
  8  9  1  0  0  0
  9 10  2  0  0  0
  9 34  1  0  0  0
 10 11  1  0  0  0
 10 35  1  0  0  0
 11 12  2  0  0  0
 11 36  1  0  0  0
 12 13  1  0  0  0
 12 37  1  0  0  0
 14 30  1  0  0  0
 14 15  1  0  0  0
 14 38  1  0  0  0
 15 16  1  0  0  0
 15 39  1  0  0  0
 15 40  1  0  0  0
 16 17  1  0  0  0
 16 41  1  0  0  0
 16 42  1  0  0  0
 17 18  1  0  0  0
 17 24  1  0  0  0
 18 19  1  0  0  0
 18 43  1  0  0  0
 18 44  1  0  0  0
 19 23  1  0  0  0
 19 20  2  0  0  0
 20 21  1  0  0  0
 21 22  2  0  0  0
 21 45  1  0  0  0
 22 23  1  0  0  0
 22 46  1  0  0  0
 23 47  1  0  0  0
 24 30  2  0  0  0
 24 25  1  0  0  0
 25 26  2  0  0  0
 25 48  1  0  0  0
 26 27  1  0  0  0
 26 49  1  0  0  0
 27 28  1  0  0  0
 27 29  2  0  0  0
 29 30  1  0  0  0
 29 50  1  0  0  0
M  END
> <r_i_docking_score>
-5.4853401629325

$$$$
ligprep_5.maegz:225
                    3D
 Schrodinger Suite 2020-4.
 50 54  0  0  1  0            999 V2000
    8.8538    3.2437   24.6722 O   0  0  0  0  0  0
    9.0672    3.5274   23.4913 C   0  0  0  0  0  0
    9.7605    4.6209   23.1081 N   0  0  0  0  0  0
   10.3112    5.5462   24.0011 C   0  0  0  0  0  0
   11.6718    5.4561   24.3062 C   0  0  0  0  0  0
   12.3025    6.2801   25.1745 N   0  0  0  0  0  0
   11.5673    7.2495   25.7629 C   0  0  0  0  0  0
   10.1924    7.4727   25.5189 C   0  0  0  0  0  0
    9.4671    8.5238   26.1292 C   0  0  0  0  0  0
    8.1177    8.7022   25.8343 C   0  0  0  0  0  0
    7.4691    7.8525   24.9436 C   0  0  0  0  0  0
    8.1578    6.8095   24.3298 C   0  0  0  0  0  0
    9.5375    6.5926   24.6007 C   0  0  0  0  0  0
    8.5847    2.5833   22.3539 C   0  0  2  0  0  0
    7.0924    2.2476   22.5540 C   0  0  0  0  0  0
    6.6061    1.2389   21.5060 C   0  0  0  0  0  0
    7.4584    0.0404   21.4462 N   0  0  0  0  0  0
    6.7385   -1.0963   20.8456 C   0  0  0  0  0  0
    6.4691   -2.1948   21.8581 C   0  0  0  0  0  0
    7.0026   -3.4571   22.0785 C   0  0  0  0  0  0
    6.3427   -3.9627   23.2022 C   0  0  0  0  0  0
    5.4710   -3.1133   23.6874 N   0  0  0  0  0  0
    5.5692   -2.0512   22.8787 N   0  0  0  0  0  0
    8.8195    0.0869   21.7879 C   0  0  0  0  0  0
    9.6173   -1.0575   21.6215 C   0  0  0  0  0  0
   10.9739   -1.0492   21.9130 C   0  0  0  0  0  0
   11.5642    0.1138   22.3874 C   0  0  0  0  0  0
   13.2569    0.1617   22.7079 Cl  0  0  0  0  0  0
   10.7922    1.2578   22.5626 C   0  0  0  0  0  0
    9.4127    1.2794   22.2919 C   0  0  0  0  0  0
    9.9694    4.7383   22.1217 H   0  0  0  0  0  0
   12.2852    4.6848   23.8630 H   0  0  0  0  0  0
   12.0987    7.8960   26.4435 H   0  0  0  0  0  0
    9.9643    9.1865   26.8211 H   0  0  0  0  0  0
    7.5656    9.5060   26.3016 H   0  0  0  0  0  0
    6.4202    8.0020   24.7262 H   0  0  0  0  0  0
    7.6382    6.1595   23.6401 H   0  0  0  0  0  0
    8.7260    3.1336   21.4219 H   0  0  0  0  0  0
    6.4706    3.1456   22.5313 H   0  0  0  0  0  0
    6.9268    1.8003   23.5368 H   0  0  0  0  0  0
    6.8266    1.7525   20.5688 H   0  0  0  0  0  0
    5.5293    1.0543   21.5002 H   0  0  0  0  0  0
    7.3284   -1.4685   20.0094 H   0  0  0  0  0  0
    5.7901   -0.7777   20.4037 H   0  0  0  0  0  0
    7.7733   -3.9544   21.5077 H   0  0  0  0  0  0
    6.5087   -4.9304   23.6537 H   0  0  0  0  0  0
    5.0034   -1.2228   23.0127 H   0  0  0  0  0  0
    9.2072   -1.9745   21.2356 H   0  0  0  0  0  0
   11.5636   -1.9411   21.7561 H   0  0  0  0  0  0
   11.2944    2.1503   22.9024 H   0  0  0  0  0  0
  1  2  2  0  0  0
  2  3  1  0  0  0
  2 14  1  0  0  0
  3  4  1  0  0  0
  3 31  1  0  0  0
  4 13  2  0  0  0
  4  5  1  0  0  0
  5  6  2  0  0  0
  5 32  1  0  0  0
  6  7  1  0  0  0
  7  8  2  0  0  0
  7 33  1  0  0  0
  8 13  1  0  0  0
  8  9  1  0  0  0
  9 10  2  0  0  0
  9 34  1  0  0  0
 10 11  1  0  0  0
 10 35  1  0  0  0
 11 12  2  0  0  0
 11 36  1  0  0  0
 12 13  1  0  0  0
 12 37  1  0  0  0
 14 30  1  0  0  0
 14 15  1  0  0  0
 14 38  1  0  0  0
 15 16  1  0  0  0
 15 39  1  0  0  0
 15 40  1  0  0  0
 16 17  1  0  0  0
 16 41  1  0  0  0
 16 42  1  0  0  0
 17 18  1  0  0  0
 17 24  1  0  0  0
 18 19  1  0  0  0
 18 43  1  0  0  0
 18 44  1  0  0  0
 19 23  1  0  0  0
 19 20  2  0  0  0
 20 21  1  0  0  0
 20 45  1  0  0  0
 21 22  2  0  0  0
 21 46  1  0  0  0
 22 23  1  0  0  0
 23 47  1  0  0  0
 24 30  2  0  0  0
 24 25  1  0  0  0
 25 26  2  0  0  0
 25 48  1  0  0  0
 26 27  1  0  0  0
 26 49  1  0  0  0
 27 28  1  0  0  0
 27 29  2  0  0  0
 29 30  1  0  0  0
 29 50  1  0  0  0
M  END
> <r_i_docking_score>
-6.31970321750451

$$$$
ligprep_5.maegz:226
                    3D
 Schrodinger Suite 2020-4.
 53 56  0  0  1  0            999 V2000
    8.3696    5.0653   22.3854 C   0  0  0  0  0  0
    8.7970    4.3612   23.5991 N   0  0  0  0  0  0
    8.8160    5.2266   24.7818 C   0  0  0  0  0  0
    9.1108    3.0382   23.5944 C   0  0  0  0  0  0
    9.1454    2.3878   22.5470 O   0  0  0  0  0  0
    9.4336    2.3462   24.9492 C   0  0  0  0  0  0
    9.5808    0.8733   24.8712 N   0  0  0  0  0  0
    8.5071    0.1938   25.6212 C   0  0  0  0  0  0
    8.8327   -1.2689   25.9556 C   0  0  0  0  0  0
    9.3746   -2.0624   24.7456 C   0  0  1  0  0  0
    8.2575   -2.5709   23.8079 C   0  0  0  0  0  0
    7.9811   -3.7706   23.8096 O   0  0  0  0  0  0
    7.6621   -1.6450   23.0316 N   0  0  0  0  0  0
    6.7917   -1.8087   21.9383 C   0  0  0  0  0  0
    6.2677   -3.0445   21.5191 C   0  0  0  0  0  0
    5.6213   -3.2281   20.3452 N   0  0  0  0  0  0
    5.5696   -2.1687   19.5080 C   0  0  0  0  0  0
    5.8915   -0.8481   19.8682 C   0  0  0  0  0  0
    5.6119    0.2603   19.0357 C   0  0  0  0  0  0
    5.8419    1.5471   19.5030 C   0  0  0  0  0  0
    6.4050    1.7570   20.7560 C   0  0  0  0  0  0
    6.7494    0.6794   21.5654 C   0  0  0  0  0  0
    6.4876   -0.6541   21.1487 C   0  0  0  0  0  0
   10.4398   -1.2549   23.9861 C   0  0  0  0  0  0
   11.3403   -1.9052   23.1274 C   0  0  0  0  0  0
   12.3696   -1.2126   22.4959 C   0  0  0  0  0  0
   13.5059   -2.0528   21.5079 Cl  0  0  0  0  0  0
   12.5095    0.1536   22.7018 C   0  0  0  0  0  0
   11.5954    0.8283   23.5020 C   0  0  0  0  0  0
   10.5333    0.1544   24.1265 C   0  0  0  0  0  0
    8.3361    4.4194   21.5079 H   0  0  0  0  0  0
    7.3708    5.4827   22.5183 H   0  0  0  0  0  0
    9.0512    5.8867   22.1606 H   0  0  0  0  0  0
    9.2076    4.7506   25.6797 H   0  0  0  0  0  0
    9.4369    6.1024   24.5894 H   0  0  0  0  0  0
    7.8075    5.5777   25.0034 H   0  0  0  0  0  0
    8.6532    2.6356   25.6544 H   0  0  0  0  0  0
   10.3641    2.7471   25.3430 H   0  0  0  0  0  0
    8.0841    0.7623   26.4510 H   0  0  0  0  0  0
    7.6956    0.1120   24.8995 H   0  0  0  0  0  0
    9.5696   -1.2528   26.7587 H   0  0  0  0  0  0
    7.9540   -1.7475   26.3920 H   0  0  0  0  0  0
    9.8180   -2.9920   25.1080 H   0  0  0  0  0  0
    7.9892   -0.6997   23.1633 H   0  0  0  0  0  0
    6.4011   -3.9508   22.0871 H   0  0  0  0  0  0
    5.1696   -2.3671   18.5279 H   0  0  0  0  0  0
    5.1696    0.1056   18.0620 H   0  0  0  0  0  0
    5.5696    2.3951   18.8898 H   0  0  0  0  0  0
    6.5752    2.7649   21.1072 H   0  0  0  0  0  0
    7.1722    0.8659   22.5394 H   0  0  0  0  0  0
   11.2640   -2.9730   22.9805 H   0  0  0  0  0  0
   13.3134    0.6956   22.2250 H   0  0  0  0  0  0
   11.7163    1.8945   23.6143 H   0  0  0  0  0  0
  1  2  1  0  0  0
  1 31  1  0  0  0
  1 32  1  0  0  0
  1 33  1  0  0  0
  2  3  1  0  0  0
  2  4  1  0  0  0
  3 34  1  0  0  0
  3 35  1  0  0  0
  3 36  1  0  0  0
  4  5  2  0  0  0
  4  6  1  0  0  0
  6  7  1  0  0  0
  6 37  1  0  0  0
  6 38  1  0  0  0
  7 30  1  0  0  0
  7  8  1  0  0  0
  8  9  1  0  0  0
  8 39  1  0  0  0
  8 40  1  0  0  0
  9 10  1  0  0  0
  9 41  1  0  0  0
  9 42  1  0  0  0
 10 11  1  0  0  0
 10 24  1  0  0  0
 10 43  1  0  0  0
 11 12  2  0  0  0
 11 13  1  0  0  0
 13 14  1  0  0  0
 13 44  1  0  0  0
 14 23  2  0  0  0
 14 15  1  0  0  0
 15 16  2  0  0  0
 15 45  1  0  0  0
 16 17  1  0  0  0
 17 18  2  0  0  0
 17 46  1  0  0  0
 18 23  1  0  0  0
 18 19  1  0  0  0
 19 20  2  0  0  0
 19 47  1  0  0  0
 20 21  1  0  0  0
 20 48  1  0  0  0
 21 22  2  0  0  0
 21 49  1  0  0  0
 22 23  1  0  0  0
 22 50  1  0  0  0
 24 30  2  0  0  0
 24 25  1  0  0  0
 25 26  2  0  0  0
 25 51  1  0  0  0
 26 27  1  0  0  0
 26 28  1  0  0  0
 28 29  2  0  0  0
 28 52  1  0  0  0
 29 30  1  0  0  0
 29 53  1  0  0  0
M  END
> <r_i_docking_score>
-5.84939390715612

$$$$
ligprep_5.maegz:227
                    3D
 Schrodinger Suite 2020-4.
 49 53  0  0  1  0            999 V2000
    8.9561    1.5447   21.1078 O   0  0  0  0  0  0
    8.3616    1.2340   22.1470 C   0  0  0  0  0  0
    7.0194    1.1891   22.2372 N   0  0  0  0  0  0
    6.1208    1.4882   21.2017 C   0  0  0  0  0  0
    6.2667    0.9175   19.9254 C   0  0  0  0  0  0
    5.4214    1.1457   18.8960 N   0  0  0  0  0  0
    4.3688    1.9560   19.1348 C   0  0  0  0  0  0
    4.0864    2.5776   20.3700 C   0  0  0  0  0  0
    2.9549    3.4036   20.5657 C   0  0  0  0  0  0
    2.7367    3.9998   21.8038 C   0  0  0  0  0  0
    3.6217    3.7902   22.8563 C   0  0  0  0  0  0
    4.7424    2.9807   22.6925 C   0  0  0  0  0  0
    5.0004    2.3467   21.4430 C   0  0  0  0  0  0
    9.1411    0.8934   23.4479 C   0  0  2  0  0  0
    8.9097    1.9341   24.5584 C   0  0  0  0  0  0
    9.5457    3.2752   24.1701 C   0  0  0  0  0  0
   10.9785    3.1866   23.8104 N   0  0  0  0  0  0
   11.4065    4.5035   23.2828 C   0  0  0  0  0  0
   11.3063    5.6659   24.2652 C   0  0  0  0  0  0
   10.2292    6.3401   24.5883 N   0  0  0  0  0  0
   10.6823    7.1772   25.5080 C   0  0  0  0  0  0
   11.9672    7.1459   25.7736 N   0  0  0  0  0  0
   12.3695    6.1734   24.9562 N   0  0  0  0  0  0
   11.4547    1.9822   23.2507 C   0  0  0  0  0  0
   12.8115    1.8576   22.9130 C   0  0  0  0  0  0
   13.3414    0.6549   22.4537 C   0  0  0  0  0  0
   12.5281   -0.4662   22.3370 C   0  0  0  0  0  0
   13.1702   -1.9654   21.7764 Cl  0  0  0  0  0  0
   11.1869   -0.3758   22.6823 C   0  0  0  0  0  0
   10.6397    0.8181   23.1698 C   0  0  0  0  0  0
    6.6071    1.0391   23.1466 H   0  0  0  0  0  0
    7.0892    0.2520   19.7039 H   0  0  0  0  0  0
    3.7039    2.1318   18.3081 H   0  0  0  0  0  0
    2.2771    3.5853   19.7440 H   0  0  0  0  0  0
    1.8789    4.6400   21.9460 H   0  0  0  0  0  0
    3.4386    4.2673   23.8086 H   0  0  0  0  0  0
    5.4227    2.8400   23.5194 H   0  0  0  0  0  0
    8.7521   -0.0774   23.7585 H   0  0  0  0  0  0
    9.3593    1.5959   25.4941 H   0  0  0  0  0  0
    7.8490    2.0782   24.7724 H   0  0  0  0  0  0
    9.3200    4.0710   24.8774 H   0  0  0  0  0  0
    9.0368    3.6270   23.2704 H   0  0  0  0  0  0
   10.8429    4.7120   22.3717 H   0  0  0  0  0  0
   12.4397    4.4597   22.9464 H   0  0  0  0  0  0
   10.0242    7.8807   25.9977 H   0  0  0  0  0  0
   13.3350    5.8908   24.8699 H   0  0  0  0  0  0
   13.4935    2.6865   23.0252 H   0  0  0  0  0  0
   14.3860    0.5921   22.1897 H   0  0  0  0  0  0
   10.5614   -1.2508   22.5697 H   0  0  0  0  0  0
  1  2  2  0  0  0
  2  3  1  0  0  0
  2 14  1  0  0  0
  3  4  1  0  0  0
  3 31  1  0  0  0
  4 13  2  0  0  0
  4  5  1  0  0  0
  5  6  2  0  0  0
  5 32  1  0  0  0
  6  7  1  0  0  0
  7  8  2  0  0  0
  7 33  1  0  0  0
  8 13  1  0  0  0
  8  9  1  0  0  0
  9 10  2  0  0  0
  9 34  1  0  0  0
 10 11  1  0  0  0
 10 35  1  0  0  0
 11 12  2  0  0  0
 11 36  1  0  0  0
 12 13  1  0  0  0
 12 37  1  0  0  0
 14 30  1  0  0  0
 14 15  1  0  0  0
 14 38  1  0  0  0
 15 16  1  0  0  0
 15 39  1  0  0  0
 15 40  1  0  0  0
 16 17  1  0  0  0
 16 41  1  0  0  0
 16 42  1  0  0  0
 17 18  1  0  0  0
 17 24  1  0  0  0
 18 19  1  0  0  0
 18 43  1  0  0  0
 18 44  1  0  0  0
 19 23  1  0  0  0
 19 20  2  0  0  0
 20 21  1  0  0  0
 21 22  2  0  0  0
 21 45  1  0  0  0
 22 23  1  0  0  0
 23 46  1  0  0  0
 24 30  2  0  0  0
 24 25  1  0  0  0
 25 26  2  0  0  0
 25 47  1  0  0  0
 26 27  1  0  0  0
 26 48  1  0  0  0
 27 28  1  0  0  0
 27 29  2  0  0  0
 29 30  1  0  0  0
 29 49  1  0  0  0
M  END
> <r_i_docking_score>
-6.65197732851795

$$$$
ligprep_5.maegz:228
                    3D
 Schrodinger Suite 2020-4.
 44 47  0  0  1  0            999 V2000
    8.7679   -5.6528   26.8803 N   0  0  0  0  0  0
    9.1665   -4.7667   25.9735 C   0  0  0  0  0  0
   10.2640   -4.8530   25.4403 O   0  0  0  0  0  0
    8.2642   -3.7945   25.6989 N   0  0  0  0  0  0
    8.2671   -2.7102   26.7026 C   0  0  0  0  0  0
    6.9643   -1.9003   26.5751 C   0  0  0  0  0  0
    6.7492   -1.3714   25.1414 C   0  0  1  0  0  0
    7.6972   -0.1844   24.8235 C   0  0  0  0  0  0
    7.2801    0.9576   25.0104 O   0  0  0  0  0  0
    8.9288   -0.4821   24.3536 N   0  0  0  0  0  0
   10.0045    0.3651   24.0035 C   0  0  0  0  0  0
   10.0427    1.7388   24.2997 C   0  0  0  0  0  0
   11.0659    2.5617   23.9695 N   0  0  0  0  0  0
   12.1186    2.0194   23.3246 C   0  0  0  0  0  0
   12.2284    0.6564   22.9783 C   0  0  0  0  0  0
   13.3608    0.1340   22.3090 C   0  0  0  0  0  0
   13.4020   -1.2101   21.9560 C   0  0  0  0  0  0
   12.3514   -2.0532   22.2925 C   0  0  0  0  0  0
   11.2322   -1.5763   22.9642 C   0  0  0  0  0  0
   11.1345   -0.2016   23.3220 C   0  0  0  0  0  0
    6.8657   -2.5104   24.1213 C   0  0  0  0  0  0
    6.2601   -2.3948   22.8626 C   0  0  0  0  0  0
    6.3553   -3.4152   21.9202 C   0  0  0  0  0  0
    5.5696   -3.2520   20.3914 Cl  0  0  0  0  0  0
    7.0707   -4.5665   22.2193 C   0  0  0  0  0  0
    7.6962   -4.6931   23.4553 C   0  0  0  0  0  0
    7.6270   -3.6671   24.4208 C   0  0  0  0  0  0
    7.8405   -5.6212   27.2724 H   0  0  0  0  0  0
    9.4150   -6.3882   27.1499 H   0  0  0  0  0  0
    8.3694   -3.1112   27.7089 H   0  0  0  0  0  0
    9.1362   -2.0763   26.5198 H   0  0  0  0  0  0
    6.1266   -2.5377   26.8658 H   0  0  0  0  0  0
    6.9810   -1.0796   27.2949 H   0  0  0  0  0  0
    5.7526   -0.9288   25.0783 H   0  0  0  0  0  0
    9.1045   -1.4667   24.2095 H   0  0  0  0  0  0
    9.2483    2.2358   24.8341 H   0  0  0  0  0  0
   12.9226    2.6980   23.0799 H   0  0  0  0  0  0
   14.1755    0.7929   22.0447 H   0  0  0  0  0  0
   14.2548   -1.6091   21.4268 H   0  0  0  0  0  0
   12.4043   -3.0958   22.0215 H   0  0  0  0  0  0
   10.4357   -2.2673   23.2064 H   0  0  0  0  0  0
    5.6973   -1.5050   22.6184 H   0  0  0  0  0  0
    7.1481   -5.3614   21.4905 H   0  0  0  0  0  0
    8.2432   -5.6038   23.6462 H   0  0  0  0  0  0
  1  2  1  0  0  0
  1 28  1  0  0  0
  1 29  1  0  0  0
  2  3  2  0  0  0
  2  4  1  0  0  0
  4 27  1  0  0  0
  4  5  1  0  0  0
  5  6  1  0  0  0
  5 30  1  0  0  0
  5 31  1  0  0  0
  6  7  1  0  0  0
  6 32  1  0  0  0
  6 33  1  0  0  0
  7  8  1  0  0  0
  7 21  1  0  0  0
  7 34  1  0  0  0
  8  9  2  0  0  0
  8 10  1  0  0  0
 10 11  1  0  0  0
 10 35  1  0  0  0
 11 20  2  0  0  0
 11 12  1  0  0  0
 12 13  2  0  0  0
 12 36  1  0  0  0
 13 14  1  0  0  0
 14 15  2  0  0  0
 14 37  1  0  0  0
 15 20  1  0  0  0
 15 16  1  0  0  0
 16 17  2  0  0  0
 16 38  1  0  0  0
 17 18  1  0  0  0
 17 39  1  0  0  0
 18 19  2  0  0  0
 18 40  1  0  0  0
 19 20  1  0  0  0
 19 41  1  0  0  0
 21 27  2  0  0  0
 21 22  1  0  0  0
 22 23  2  0  0  0
 22 42  1  0  0  0
 23 24  1  0  0  0
 23 25  1  0  0  0
 25 26  2  0  0  0
 25 43  1  0  0  0
 26 27  1  0  0  0
 26 44  1  0  0  0
M  END
> <r_i_docking_score>
-7.10277737636376

$$$$
ligprep_5.maegz:229
                    3D
 Schrodinger Suite 2020-4.
 50 53  0  0  1  0            999 V2000
    9.8029    6.3362   22.9720 C   0  0  0  0  0  0
    9.9658    5.8946   24.3137 O   0  0  0  0  0  0
    9.5503    4.5582   24.5651 C   0  0  0  0  0  0
   10.4697    3.5131   23.8780 C   0  0  0  0  0  0
   10.3244    2.0850   24.2501 N   0  0  0  0  0  0
    8.9761    1.7644   24.7619 C   0  0  0  0  0  0
    8.7810    0.2863   25.1280 C   0  0  0  0  0  0
    9.2288   -0.6543   23.9965 C   0  0  1  0  0  0
    8.2096   -0.7463   22.8282 C   0  0  0  0  0  0
    7.5570   -1.7832   22.6845 O   0  0  0  0  0  0
    8.0737    0.3300   22.0210 N   0  0  0  0  0  0
    7.1947    0.4090   20.9307 C   0  0  0  0  0  0
    7.3884   -0.4196   19.8192 C   0  0  0  0  0  0
    6.6176   -0.3850   18.7079 N   0  0  0  0  0  0
    5.6070    0.5102   18.6786 C   0  0  0  0  0  0
    5.2919    1.3970   19.7316 C   0  0  0  0  0  0
    4.2081    2.3060   19.6622 C   0  0  0  0  0  0
    3.9388    3.1470   20.7380 C   0  0  0  0  0  0
    4.7319    3.1170   21.8796 C   0  0  0  0  0  0
    5.8086    2.2363   21.9718 C   0  0  0  0  0  0
    6.1147    1.3501   20.9020 C   0  0  0  0  0  0
   10.6124   -0.2456   23.4857 C   0  0  0  0  0  0
   11.3973   -1.1889   22.8093 C   0  0  0  0  0  0
   12.6490   -0.8602   22.3080 C   0  0  0  0  0  0
   13.5695   -2.0526   21.4747 Cl  0  0  0  0  0  0
   13.1435    0.4270   22.4706 C   0  0  0  0  0  0
   12.3683    1.3903   23.1085 C   0  0  0  0  0  0
   11.0872    1.0895   23.6063 C   0  0  0  0  0  0
    9.9698    7.4129   22.9228 H   0  0  0  0  0  0
   10.5213    5.8619   22.3078 H   0  0  0  0  0  0
    8.7965    6.1452   22.5987 H   0  0  0  0  0  0
    8.5092    4.4378   24.2591 H   0  0  0  0  0  0
    9.5692    4.4271   25.6454 H   0  0  0  0  0  0
   11.4977    3.8216   24.0716 H   0  0  0  0  0  0
   10.3276    3.5894   22.7976 H   0  0  0  0  0  0
    8.6284    2.4428   25.5412 H   0  0  0  0  0  0
    8.2983    1.9971   23.9444 H   0  0  0  0  0  0
    9.3502    0.0808   26.0360 H   0  0  0  0  0  0
    7.7376    0.1135   25.3960 H   0  0  0  0  0  0
    9.2615   -1.6731   24.3902 H   0  0  0  0  0  0
    8.5665    1.1736   22.2810 H   0  0  0  0  0  0
    8.1931   -1.1412   19.8042 H   0  0  0  0  0  0
    5.0078    0.5214   17.7790 H   0  0  0  0  0  0
    3.6026    2.3536   18.7675 H   0  0  0  0  0  0
    3.1249    3.8522   20.6719 H   0  0  0  0  0  0
    4.5138    3.7844   22.6993 H   0  0  0  0  0  0
    6.4034    2.2190   22.8703 H   0  0  0  0  0  0
   11.0276   -2.1958   22.6729 H   0  0  0  0  0  0
   14.1170    0.6885   22.0817 H   0  0  0  0  0  0
   12.7877    2.3775   23.2056 H   0  0  0  0  0  0
  1  2  1  0  0  0
  1 29  1  0  0  0
  1 30  1  0  0  0
  1 31  1  0  0  0
  2  3  1  0  0  0
  3  4  1  0  0  0
  3 32  1  0  0  0
  3 33  1  0  0  0
  4  5  1  0  0  0
  4 34  1  0  0  0
  4 35  1  0  0  0
  5 28  1  0  0  0
  5  6  1  0  0  0
  6  7  1  0  0  0
  6 36  1  0  0  0
  6 37  1  0  0  0
  7  8  1  0  0  0
  7 38  1  0  0  0
  7 39  1  0  0  0
  8  9  1  0  0  0
  8 22  1  0  0  0
  8 40  1  0  0  0
  9 10  2  0  0  0
  9 11  1  0  0  0
 11 12  1  0  0  0
 11 41  1  0  0  0
 12 21  2  0  0  0
 12 13  1  0  0  0
 13 14  2  0  0  0
 13 42  1  0  0  0
 14 15  1  0  0  0
 15 16  2  0  0  0
 15 43  1  0  0  0
 16 21  1  0  0  0
 16 17  1  0  0  0
 17 18  2  0  0  0
 17 44  1  0  0  0
 18 19  1  0  0  0
 18 45  1  0  0  0
 19 20  2  0  0  0
 19 46  1  0  0  0
 20 21  1  0  0  0
 20 47  1  0  0  0
 22 28  2  0  0  0
 22 23  1  0  0  0
 23 24  2  0  0  0
 23 48  1  0  0  0
 24 25  1  0  0  0
 24 26  1  0  0  0
 26 27  2  0  0  0
 26 49  1  0  0  0
 27 28  1  0  0  0
 27 50  1  0  0  0
M  END
> <r_i_docking_score>
-5.90658234592803

$$$$
ligprep_5.maegz:230
                    3D
 Schrodinger Suite 2020-4.
 43 46  0  0  1  0            999 V2000
   13.4860    0.3468   23.1079 O   0  0  0  0  0  0
   12.3624    0.8088   22.8976 C   0  0  0  0  0  0
   12.2083    2.3160   22.9579 C   0  0  0  0  0  0
   13.1694    3.1020   22.3067 C   0  0  0  0  0  0
   13.1610    4.4524   22.2572 N   0  0  0  0  0  0
   12.1473    5.0844   22.8811 C   0  0  0  0  0  0
   11.1207    4.4365   23.6010 C   0  0  0  0  0  0
   10.0800    5.1548   24.2376 C   0  0  0  0  0  0
    9.1063    4.4757   24.9615 C   0  0  0  0  0  0
    9.1588    3.0943   25.0885 C   0  0  0  0  0  0
   10.1755    2.3634   24.4797 C   0  0  0  0  0  0
   11.1657    3.0063   23.6788 C   0  0  0  0  0  0
   11.2915    0.0177   22.5980 N   0  0  0  0  0  0
   10.0820    0.5124   21.9256 C   0  0  0  0  0  0
    8.8197   -0.1761   22.4929 C   0  0  0  0  0  0
    8.8909   -1.6416   22.6141 N   0  0  0  0  0  0
    7.7421   -2.4345   22.7006 C   0  0  0  0  0  0
    6.4687   -1.8824   22.9225 C   0  0  0  0  0  0
    5.3326   -2.6911   22.9870 C   0  0  0  0  0  0
    5.4376   -4.0672   22.8052 C   0  0  0  0  0  0
    6.6856   -4.6344   22.5661 C   0  0  0  0  0  0
    6.8277   -6.3338   22.3079 Cl  0  0  0  0  0  0
    7.8204   -3.8245   22.5243 C   0  0  0  0  0  0
   10.1762   -2.0892   23.1842 C   0  0  0  0  0  0
   11.4441   -1.4447   22.5819 C   0  0  0  0  0  0
   13.9971    2.6375   21.7876 H   0  0  0  0  0  0
   12.1503    6.1614   22.8134 H   0  0  0  0  0  0
   10.0458    6.2314   24.1582 H   0  0  0  0  0  0
    8.3111    5.0272   25.4423 H   0  0  0  0  0  0
    8.4117    2.5827   25.6788 H   0  0  0  0  0  0
   10.2049    1.2938   24.6236 H   0  0  0  0  0  0
    9.9758    1.5964   21.9105 H   0  0  0  0  0  0
   10.1572    0.1914   20.8920 H   0  0  0  0  0  0
    7.9664    0.1030   21.8736 H   0  0  0  0  0  0
    8.6539    0.2033   23.5013 H   0  0  0  0  0  0
    6.3414   -0.8196   23.0655 H   0  0  0  0  0  0
    4.3701   -2.2412   23.1759 H   0  0  0  0  0  0
    4.5561   -4.6915   22.8459 H   0  0  0  0  0  0
    8.7666   -4.2917   22.3095 H   0  0  0  0  0  0
   10.2864   -3.1714   23.1716 H   0  0  0  0  0  0
   10.1377   -1.7966   24.2350 H   0  0  0  0  0  0
   11.5484   -1.7917   21.5515 H   0  0  0  0  0  0
   12.3180   -1.7858   23.1371 H   0  0  0  0  0  0
  1  2  2  0  0  0
  2  3  1  0  0  0
  2 13  1  0  0  0
  3 12  2  0  0  0
  3  4  1  0  0  0
  4  5  2  0  0  0
  4 26  1  0  0  0
  5  6  1  0  0  0
  6  7  2  0  0  0
  6 27  1  0  0  0
  7 12  1  0  0  0
  7  8  1  0  0  0
  8  9  2  0  0  0
  8 28  1  0  0  0
  9 10  1  0  0  0
  9 29  1  0  0  0
 10 11  2  0  0  0
 10 30  1  0  0  0
 11 12  1  0  0  0
 11 31  1  0  0  0
 13 25  1  0  0  0
 13 14  1  0  0  0
 14 15  1  0  0  0
 14 32  1  0  0  0
 14 33  1  0  0  0
 15 16  1  0  0  0
 15 34  1  0  0  0
 15 35  1  0  0  0
 16 17  1  0  0  0
 16 24  1  0  0  0
 17 23  2  0  0  0
 17 18  1  0  0  0
 18 19  2  0  0  0
 18 36  1  0  0  0
 19 20  1  0  0  0
 19 37  1  0  0  0
 20 21  2  0  0  0
 20 38  1  0  0  0
 21 22  1  0  0  0
 21 23  1  0  0  0
 23 39  1  0  0  0
 24 25  1  0  0  0
 24 40  1  0  0  0
 24 41  1  0  0  0
 25 42  1  0  0  0
 25 43  1  0  0  0
M  END
> <r_i_docking_score>
-6.55967182533387

$$$$
ligprep_5.maegz:231
                    3D
 Schrodinger Suite 2020-4.
 47 50  0  0  1  0            999 V2000
   13.4494    0.2544   22.6408 C   0  0  0  0  0  0
   11.9827    0.1579   23.1093 C   0  0  2  0  0  0
   11.4145   -1.2487   22.7493 C   0  0  0  0  0  0
    9.9703   -1.2996   23.0428 N   0  0  0  0  0  0
    9.4513   -2.3617   23.7237 C   0  0  0  0  0  0
   10.1403   -3.2490   24.2304 O   0  0  0  0  0  0
    8.0058   -2.4096   23.8584 C   0  0  0  0  0  0
    7.3039   -3.0460   22.8782 C   0  0  0  0  0  0
    5.8513   -3.1205   22.8099 C   0  0  0  0  0  0
    5.2099   -3.6532   21.9073 O   0  0  0  0  0  0
    5.2287   -2.5119   23.8393 N   0  0  0  0  0  0
    5.8387   -1.8253   24.9006 C   0  0  0  0  0  0
    5.0560   -1.2126   25.8800 C   0  0  0  0  0  0
    5.6710   -0.5092   26.9173 C   0  0  0  0  0  0
    7.0633   -0.4235   26.9781 C   0  0  0  0  0  0
    7.8488   -1.0445   26.0062 C   0  0  0  0  0  0
    7.2423   -1.7477   24.9551 C   0  0  0  0  0  0
    9.1071   -0.2443   22.4698 C   0  0  0  0  0  0
    9.9335    0.9476   21.9496 C   0  0  0  0  0  0
   11.1195    1.2986   22.7345 N   0  0  0  0  0  0
   11.3658    2.6261   23.0447 C   0  0  0  0  0  0
   10.4876    3.3177   23.8878 C   0  0  0  0  0  0
   10.6737    4.6776   24.1450 C   0  0  0  0  0  0
   11.7340    5.3633   23.5542 C   0  0  0  0  0  0
   12.6049    4.6879   22.6974 C   0  0  0  0  0  0
   13.8752    5.5453   21.9079 Cl  0  0  0  0  0  0
   12.4265    3.3248   22.4526 C   0  0  0  0  0  0
   14.0216   -0.6121   22.9712 H   0  0  0  0  0  0
   13.5335    0.2998   21.5541 H   0  0  0  0  0  0
   13.9494    1.1276   23.0589 H   0  0  0  0  0  0
   11.9967    0.2054   24.2010 H   0  0  0  0  0  0
   11.9929   -2.0352   23.2343 H   0  0  0  0  0  0
   11.5097   -1.3939   21.6720 H   0  0  0  0  0  0
    7.8242   -3.5201   22.0566 H   0  0  0  0  0  0
    4.2239   -2.5518   23.7868 H   0  0  0  0  0  0
    3.9785   -1.2657   25.8338 H   0  0  0  0  0  0
    5.0691   -0.0279   27.6741 H   0  0  0  0  0  0
    7.5379    0.1304   27.7768 H   0  0  0  0  0  0
    8.9245   -0.9587   26.0691 H   0  0  0  0  0  0
    8.4724   -0.6236   21.6677 H   0  0  0  0  0  0
    8.4920    0.1568   23.2765 H   0  0  0  0  0  0
   10.3504    0.6772   20.9881 H   0  0  0  0  0  0
    9.2940    1.8169   21.7865 H   0  0  0  0  0  0
    9.6521    2.8028   24.3341 H   0  0  0  0  0  0
    9.9865    5.2035   24.7946 H   0  0  0  0  0  0
   11.8696    6.4197   23.7410 H   0  0  0  0  0  0
   13.0898    2.8274   21.7631 H   0  0  0  0  0  0
  1  2  1  0  0  0
  1 28  1  0  0  0
  1 29  1  0  0  0
  1 30  1  0  0  0
  2 20  1  0  0  0
  2  3  1  0  0  0
  2 31  1  0  0  0
  3  4  1  0  0  0
  3 32  1  0  0  0
  3 33  1  0  0  0
  4  5  1  0  0  0
  4 18  1  0  0  0
  5  6  2  0  0  0
  5  7  1  0  0  0
  7 17  1  0  0  0
  7  8  2  0  0  0
  8  9  1  0  0  0
  8 34  1  0  0  0
  9 10  2  0  0  0
  9 11  1  0  0  0
 11 12  1  0  0  0
 11 35  1  0  0  0
 12 17  2  0  0  0
 12 13  1  0  0  0
 13 14  2  0  0  0
 13 36  1  0  0  0
 14 15  1  0  0  0
 14 37  1  0  0  0
 15 16  2  0  0  0
 15 38  1  0  0  0
 16 17  1  0  0  0
 16 39  1  0  0  0
 18 19  1  0  0  0
 18 40  1  0  0  0
 18 41  1  0  0  0
 19 20  1  0  0  0
 19 42  1  0  0  0
 19 43  1  0  0  0
 20 21  1  0  0  0
 21 27  2  0  0  0
 21 22  1  0  0  0
 22 23  2  0  0  0
 22 44  1  0  0  0
 23 24  1  0  0  0
 23 45  1  0  0  0
 24 25  2  0  0  0
 24 46  1  0  0  0
 25 26  1  0  0  0
 25 27  1  0  0  0
 27 47  1  0  0  0
M  END
> <r_i_docking_score>
-7.08025565186896

$$$$
ligprep_5.maegz:232
                    3D
 Schrodinger Suite 2020-4.
 47 49  0  0  1  0            999 V2000
    8.2219   -0.8530   20.3366 C   0  0  0  0  0  0
    7.8373    0.3549   20.9918 O   0  0  0  0  0  0
    6.6692    0.9947   20.6057 C   0  0  0  0  0  0
    5.9477    0.6433   19.4505 C   0  0  0  0  0  0
    4.7796    1.3169   19.1132 C   0  0  0  0  0  0
    4.3116    2.3490   19.9144 C   0  0  0  0  0  0
    2.8343    3.1471   19.5087 Cl  0  0  0  0  0  0
    5.0294    2.7315   21.0468 C   0  0  0  0  0  0
    6.2060    2.0506   21.4119 C   0  0  0  0  0  0
    6.9396    2.3366   22.5514 O   0  0  0  0  0  0
    6.6439    3.4762   23.3644 C   0  0  0  0  0  0
    7.3189    4.7482   22.8035 C   0  0  0  0  0  0
    8.7708    4.6036   22.7082 N   0  0  0  0  0  0
    9.6385    4.6919   23.7324 C   0  0  0  0  0  0
    9.3315    5.0295   24.8749 O   0  0  0  0  0  0
   10.9755    4.2773   23.3684 C   0  0  0  0  0  0
   11.8061    5.2555   22.9049 C   0  0  0  0  0  0
   13.1250    5.0292   22.3424 C   0  0  0  0  0  0
   13.8658    5.9012   21.9080 O   0  0  0  0  0  0
   13.4798    3.7334   22.3085 N   0  0  0  0  0  0
   12.7059    2.6393   22.7091 C   0  0  0  0  0  0
   13.2111    1.3578   22.5211 C   0  0  0  0  0  0
   12.4848    0.2592   22.9593 C   0  0  0  0  0  0
   11.2763    0.4477   23.6228 C   0  0  0  0  0  0
   10.7472    1.7351   23.8256 C   0  0  0  0  0  0
    9.5709    1.9499   24.5216 O   0  0  0  0  0  0
    8.8972    0.8642   25.1448 C   0  0  0  0  0  0
   11.4519    2.8506   23.3144 C   0  0  0  0  0  0
    9.1710   -1.2014   20.7448 H   0  0  0  0  0  0
    7.4804   -1.6361   20.5035 H   0  0  0  0  0  0
    8.3588   -0.7191   19.2634 H   0  0  0  0  0  0
    6.2728   -0.1541   18.8006 H   0  0  0  0  0  0
    4.2358    1.0354   18.2257 H   0  0  0  0  0  0
    4.6440    3.5524   21.6276 H   0  0  0  0  0  0
    5.5753    3.6161   23.5306 H   0  0  0  0  0  0
    7.0535    3.2694   24.3537 H   0  0  0  0  0  0
    6.9438    4.9413   21.7968 H   0  0  0  0  0  0
    7.0515    5.6222   23.4018 H   0  0  0  0  0  0
    9.1420    4.3540   21.7967 H   0  0  0  0  0  0
   11.4780    6.2855   22.8843 H   0  0  0  0  0  0
   14.3954    3.5790   21.9223 H   0  0  0  0  0  0
   14.1647    1.2090   22.0341 H   0  0  0  0  0  0
   12.8657   -0.7402   22.8078 H   0  0  0  0  0  0
   10.7570   -0.4308   23.9736 H   0  0  0  0  0  0
    8.0223    1.2458   25.6758 H   0  0  0  0  0  0
    8.5427    0.1355   24.4112 H   0  0  0  0  0  0
    9.5332    0.3656   25.8825 H   0  0  0  0  0  0
  1  2  1  0  0  0
  1 29  1  0  0  0
  1 30  1  0  0  0
  1 31  1  0  0  0
  2  3  1  0  0  0
  3  9  2  0  0  0
  3  4  1  0  0  0
  4  5  2  0  0  0
  4 32  1  0  0  0
  5  6  1  0  0  0
  5 33  1  0  0  0
  6  7  1  0  0  0
  6  8  2  0  0  0
  8  9  1  0  0  0
  8 34  1  0  0  0
  9 10  1  0  0  0
 10 11  1  0  0  0
 11 12  1  0  0  0
 11 35  1  0  0  0
 11 36  1  0  0  0
 12 13  1  0  0  0
 12 37  1  0  0  0
 12 38  1  0  0  0
 13 14  1  0  0  0
 13 39  1  0  0  0
 14 15  2  0  0  0
 14 16  1  0  0  0
 16 28  1  0  0  0
 16 17  2  0  0  0
 17 18  1  0  0  0
 17 40  1  0  0  0
 18 19  2  0  0  0
 18 20  1  0  0  0
 20 21  1  0  0  0
 20 41  1  0  0  0
 21 28  2  0  0  0
 21 22  1  0  0  0
 22 23  2  0  0  0
 22 42  1  0  0  0
 23 24  1  0  0  0
 23 43  1  0  0  0
 24 25  2  0  0  0
 24 44  1  0  0  0
 25 26  1  0  0  0
 25 28  1  0  0  0
 26 27  1  0  0  0
 27 45  1  0  0  0
 27 46  1  0  0  0
 27 47  1  0  0  0
M  END
> <r_i_docking_score>
-6.24518193025607

$$$$
ligprep_5.maegz:233
                    3D
 Schrodinger Suite 2020-4.
 48 51  0  0  1  0            999 V2000
    8.9893    3.0917   24.5752 C   0  0  0  0  0  0
    9.7073    1.9492   24.1278 O   0  0  0  0  0  0
   10.9491    2.0947   23.5364 C   0  0  0  0  0  0
   11.5299    3.3588   23.3217 C   0  0  0  0  0  0
   12.7715    3.4895   22.7077 C   0  0  0  0  0  0
   13.4646    2.3564   22.3079 C   0  0  0  0  0  0
   12.9162    1.0962   22.5213 C   0  0  0  0  0  0
   13.5952   -0.0153   22.0203 N   0  0  0  0  0  0
   13.1323   -1.2744   21.9475 C   0  0  0  0  0  0
   13.6682   -2.1121   21.2354 O   0  0  0  0  0  0
   11.9183   -1.4784   22.7044 C   0  0  0  0  0  0
   11.1493   -0.4793   23.2269 C   0  0  0  0  0  0
    9.8763   -0.8823   23.7908 C   0  0  0  0  0  0
    9.7100   -0.8533   25.0124 O   0  0  0  0  0  0
    8.8904   -1.2227   22.9120 N   0  0  0  0  0  0
    7.5286   -1.4626   23.3956 C   0  0  0  0  0  0
    6.5904   -0.4735   22.6586 C   0  0  0  0  0  0
    6.8745   -0.1832   21.2333 N   0  0  0  0  0  0
    6.0263    0.6294   20.4724 C   0  0  0  0  0  0
    6.0166    0.6071   19.0643 C   0  0  0  0  0  0
    5.1808    1.4538   18.3359 C   0  0  0  0  0  0
    4.3453    2.3462   19.0014 C   0  0  0  0  0  0
    4.3260    2.3817   20.3865 C   0  0  0  0  0  0
    3.2490    3.4449   21.2158 Cl  0  0  0  0  0  0
    5.1725    1.5483   21.1079 C   0  0  0  0  0  0
    7.7908   -1.1798   20.6622 C   0  0  0  0  0  0
    9.1050   -1.3836   21.4565 C   0  0  0  0  0  0
   11.6514    0.9378   23.1210 C   0  0  0  0  0  0
    8.0609    2.7678   25.0465 H   0  0  0  0  0  0
    9.5620    3.6558   25.3156 H   0  0  0  0  0  0
    8.7257    3.7458   23.7429 H   0  0  0  0  0  0
   11.0253    4.2654   23.6145 H   0  0  0  0  0  0
   13.1974    4.4689   22.5470 H   0  0  0  0  0  0
   14.4272    2.4619   21.8313 H   0  0  0  0  0  0
   14.4261    0.1317   21.4741 H   0  0  0  0  0  0
   11.5942   -2.5091   22.7551 H   0  0  0  0  0  0
    7.4084   -1.3999   24.4779 H   0  0  0  0  0  0
    7.2684   -2.4848   23.1170 H   0  0  0  0  0  0
    6.7243    0.4794   23.1710 H   0  0  0  0  0  0
    5.5679   -0.8309   22.7635 H   0  0  0  0  0  0
    6.6412   -0.0646   18.4981 H   0  0  0  0  0  0
    5.1840    1.4269   17.2581 H   0  0  0  0  0  0
    3.7106    3.0108   18.4313 H   0  0  0  0  0  0
    5.1352    1.6132   22.1834 H   0  0  0  0  0  0
    7.2215   -2.1094   20.6836 H   0  0  0  0  0  0
    8.0500   -0.9750   19.6250 H   0  0  0  0  0  0
    9.5564   -2.3445   21.1969 H   0  0  0  0  0  0
    9.7505   -0.5705   21.1179 H   0  0  0  0  0  0
  1  2  1  0  0  0
  1 29  1  0  0  0
  1 30  1  0  0  0
  1 31  1  0  0  0
  2  3  1  0  0  0
  3 28  2  0  0  0
  3  4  1  0  0  0
  4  5  2  0  0  0
  4 32  1  0  0  0
  5  6  1  0  0  0
  5 33  1  0  0  0
  6  7  2  0  0  0
  6 34  1  0  0  0
  7 28  1  0  0  0
  7  8  1  0  0  0
  8  9  1  0  0  0
  8 35  1  0  0  0
  9 10  2  0  0  0
  9 11  1  0  0  0
 11 12  2  0  0  0
 11 36  1  0  0  0
 12 13  1  0  0  0
 12 28  1  0  0  0
 13 14  2  0  0  0
 13 15  1  0  0  0
 15 27  1  0  0  0
 15 16  1  0  0  0
 16 17  1  0  0  0
 16 37  1  0  0  0
 16 38  1  0  0  0
 17 18  1  0  0  0
 17 39  1  0  0  0
 17 40  1  0  0  0
 18 19  1  0  0  0
 18 26  1  0  0  0
 19 25  2  0  0  0
 19 20  1  0  0  0
 20 21  2  0  0  0
 20 41  1  0  0  0
 21 22  1  0  0  0
 21 42  1  0  0  0
 22 23  2  0  0  0
 22 43  1  0  0  0
 23 24  1  0  0  0
 23 25  1  0  0  0
 25 44  1  0  0  0
 26 27  1  0  0  0
 26 45  1  0  0  0
 26 46  1  0  0  0
 27 47  1  0  0  0
 27 48  1  0  0  0
M  END
> <r_i_docking_score>
-6.79254391115031

$$$$
ligprep_5.maegz:234
                    3D
 Schrodinger Suite 2020-4.
 45 48  0  0  1  0            999 V2000
    6.6292   -5.8204   22.6398 C   0  0  0  0  0  0
    6.3030   -4.3460   22.3592 C   0  0  0  0  0  0
    5.1778   -4.1214   21.9106 O   0  0  0  0  0  0
    7.2245   -3.3632   22.6208 N   0  0  0  0  0  0
    8.3478   -3.7012   23.5218 C   0  0  0  0  0  0
    8.2621   -2.7304   24.7195 C   0  0  0  0  0  0
    8.4194   -1.2509   24.2787 C   0  0  1  0  0  0
    9.9005   -0.8882   23.9543 C   0  0  0  0  0  0
   10.7633   -1.7661   23.9037 O   0  0  0  0  0  0
   10.1585    0.4243   23.7665 N   0  0  0  0  0  0
   11.3340    1.0666   23.3223 C   0  0  0  0  0  0
   12.4387    0.3770   22.7914 C   0  0  0  0  0  0
   13.5471    0.9771   22.3080 N   0  0  0  0  0  0
   13.5692    2.3250   22.3078 C   0  0  0  0  0  0
   12.5516    3.1495   22.8235 C   0  0  0  0  0  0
   12.6546    4.5618   22.8409 C   0  0  0  0  0  0
   11.6224    5.3268   23.3747 C   0  0  0  0  0  0
   10.4849    4.7161   23.8905 C   0  0  0  0  0  0
   10.3575    3.3286   23.8842 C   0  0  0  0  0  0
   11.3919    2.5025   23.3531 C   0  0  0  0  0  0
    7.5198   -0.9421   23.0646 C   0  0  0  0  0  0
    7.2438    0.3856   22.6963 C   0  0  0  0  0  0
    6.5586    0.6946   21.5271 C   0  0  0  0  0  0
    6.2746    2.3453   21.1062 Cl  0  0  0  0  0  0
    6.1315   -0.3278   20.6909 C   0  0  0  0  0  0
    6.3625   -1.6517   21.0504 C   0  0  0  0  0  0
    7.0002   -1.9914   22.2619 C   0  0  0  0  0  0
    7.6333   -6.0766   22.2984 H   0  0  0  0  0  0
    6.5399   -6.0482   23.7023 H   0  0  0  0  0  0
    5.9345   -6.4705   22.1051 H   0  0  0  0  0  0
    8.4231   -4.7343   23.8592 H   0  0  0  0  0  0
    9.2619   -3.4544   22.9836 H   0  0  0  0  0  0
    7.3098   -2.8760   25.2325 H   0  0  0  0  0  0
    9.0321   -2.9970   25.4457 H   0  0  0  0  0  0
    8.1758   -0.6036   25.1234 H   0  0  0  0  0  0
    9.3853    1.0465   23.9289 H   0  0  0  0  0  0
   12.4645   -0.6974   22.7077 H   0  0  0  0  0  0
   14.4668    2.7726   21.9087 H   0  0  0  0  0  0
   13.5382    5.0400   22.4428 H   0  0  0  0  0  0
   11.7029    6.4039   23.3855 H   0  0  0  0  0  0
    9.6904    5.3259   24.2960 H   0  0  0  0  0  0
    9.4635    2.8841   24.2939 H   0  0  0  0  0  0
    7.5861    1.2021   23.3125 H   0  0  0  0  0  0
    5.6188   -0.0974   19.7681 H   0  0  0  0  0  0
    6.0295   -2.4159   20.3655 H   0  0  0  0  0  0
  1  2  1  0  0  0
  1 28  1  0  0  0
  1 29  1  0  0  0
  1 30  1  0  0  0
  2  3  2  0  0  0
  2  4  1  0  0  0
  4 27  1  0  0  0
  4  5  1  0  0  0
  5  6  1  0  0  0
  5 31  1  0  0  0
  5 32  1  0  0  0
  6  7  1  0  0  0
  6 33  1  0  0  0
  6 34  1  0  0  0
  7  8  1  0  0  0
  7 21  1  0  0  0
  7 35  1  0  0  0
  8  9  2  0  0  0
  8 10  1  0  0  0
 10 11  1  0  0  0
 10 36  1  0  0  0
 11 20  2  0  0  0
 11 12  1  0  0  0
 12 13  2  0  0  0
 12 37  1  0  0  0
 13 14  1  0  0  0
 14 15  2  0  0  0
 14 38  1  0  0  0
 15 20  1  0  0  0
 15 16  1  0  0  0
 16 17  2  0  0  0
 16 39  1  0  0  0
 17 18  1  0  0  0
 17 40  1  0  0  0
 18 19  2  0  0  0
 18 41  1  0  0  0
 19 20  1  0  0  0
 19 42  1  0  0  0
 21 27  2  0  0  0
 21 22  1  0  0  0
 22 23  2  0  0  0
 22 43  1  0  0  0
 23 24  1  0  0  0
 23 25  1  0  0  0
 25 26  2  0  0  0
 25 44  1  0  0  0
 26 27  1  0  0  0
 26 45  1  0  0  0
M  END
> <r_i_docking_score>
-7.06607178973785

$$$$
ligprep_5.maegz:235
                    3D
 Schrodinger Suite 2020-4.
 39 42  0  0  1  0            999 V2000
    9.2858   -2.4665   22.9465 O   0  0  0  0  0  0
    9.3333   -1.9812   24.0779 C   0  0  0  0  0  0
    8.5839   -2.7271   25.2083 C   0  0  0  0  0  0
    7.1024   -2.9629   24.9020 C   0  0  0  0  0  0
    6.1341   -2.1265   25.4673 C   0  0  0  0  0  0
    4.8046   -2.2610   25.2596 N   0  0  0  0  0  0
    4.4011   -3.2627   24.4476 C   0  0  0  0  0  0
    5.2679   -4.1692   23.7963 C   0  0  0  0  0  0
    4.7975   -5.1967   22.9417 C   0  0  0  0  0  0
    5.7026   -6.0532   22.3227 C   0  0  0  0  0  0
    7.0667   -5.9251   22.5436 C   0  0  0  0  0  0
    7.5549   -4.9335   23.3895 C   0  0  0  0  0  0
    6.6710   -4.0202   24.0306 C   0  0  0  0  0  0
   10.0406   -0.8459   24.3521 N   0  0  0  0  0  0
    9.5907    0.0174   25.4644 C   0  0  0  0  0  0
    9.6487    1.4675   24.9330 C   0  0  0  0  0  0
   10.9714    1.8272   24.5271 O   0  0  0  0  0  0
   11.6034    0.9042   23.7184 C   0  0  0  0  0  0
   12.7633    1.3495   23.0912 C   0  0  0  0  0  0
   13.5066    0.4711   22.3079 C   0  0  0  0  0  0
   13.0803   -0.8447   22.1308 C   0  0  0  0  0  0
   13.9694   -1.9236   21.1187 Cl  0  0  0  0  0  0
   11.9222   -1.2895   22.7594 C   0  0  0  0  0  0
   11.1613   -0.4256   23.5769 C   0  0  0  0  0  0
    9.0746   -3.6898   25.3487 H   0  0  0  0  0  0
    8.6923   -2.2520   26.1830 H   0  0  0  0  0  0
    6.4190   -1.3114   26.1168 H   0  0  0  0  0  0
    3.3340   -3.3526   24.3097 H   0  0  0  0  0  0
    3.7363   -5.3138   22.7757 H   0  0  0  0  0  0
    5.3470   -6.8480   21.6798 H   0  0  0  0  0  0
    7.7528   -6.6021   22.0584 H   0  0  0  0  0  0
    8.6175   -4.8539   23.5431 H   0  0  0  0  0  0
   10.3642   -0.0420   26.2342 H   0  0  0  0  0  0
    8.6090   -0.1909   25.8920 H   0  0  0  0  0  0
    9.3044    2.1584   25.7021 H   0  0  0  0  0  0
    8.9641    1.5764   24.0882 H   0  0  0  0  0  0
   13.0942    2.3697   23.2219 H   0  0  0  0  0  0
   14.4003    0.8218   21.8158 H   0  0  0  0  0  0
   11.6508   -2.3269   22.6243 H   0  0  0  0  0  0
  1  2  2  0  0  0
  2  3  1  0  0  0
  2 14  1  0  0  0
  3  4  1  0  0  0
  3 25  1  0  0  0
  3 26  1  0  0  0
  4 13  2  0  0  0
  4  5  1  0  0  0
  5  6  2  0  0  0
  5 27  1  0  0  0
  6  7  1  0  0  0
  7  8  2  0  0  0
  7 28  1  0  0  0
  8 13  1  0  0  0
  8  9  1  0  0  0
  9 10  2  0  0  0
  9 29  1  0  0  0
 10 11  1  0  0  0
 10 30  1  0  0  0
 11 12  2  0  0  0
 11 31  1  0  0  0
 12 13  1  0  0  0
 12 32  1  0  0  0
 14 24  1  0  0  0
 14 15  1  0  0  0
 15 16  1  0  0  0
 15 33  1  0  0  0
 15 34  1  0  0  0
 16 17  1  0  0  0
 16 35  1  0  0  0
 16 36  1  0  0  0
 17 18  1  0  0  0
 18 24  2  0  0  0
 18 19  1  0  0  0
 19 20  2  0  0  0
 19 37  1  0  0  0
 20 21  1  0  0  0
 20 38  1  0  0  0
 21 22  1  0  0  0
 21 23  2  0  0  0
 23 24  1  0  0  0
 23 39  1  0  0  0
M  END
> <r_i_docking_score>
-6.12002898975974

$$$$
ligprep_5.maegz:236
                    3D
 Schrodinger Suite 2020-4.
 40 43  0  0  1  0            999 V2000
    4.6218    4.2193   24.5366 N   0  0  0  0  0  0
    4.8095    3.6208   23.5643 C   0  0  0  0  0  0
    5.0464    2.8648   22.3428 C   0  0  0  0  0  0
    4.2334    3.0679   21.2279 C   0  0  0  0  0  0
    4.4420    2.3473   20.0554 C   0  0  0  0  0  0
    5.4926    1.4050   19.9821 C   0  0  0  0  0  0
    5.7542    0.6526   18.8184 C   0  0  0  0  0  0
    6.7421   -0.2604   18.7079 N   0  0  0  0  0  0
    7.5404   -0.4529   19.7807 C   0  0  0  0  0  0
    7.3909    0.2193   20.9961 C   0  0  0  0  0  0
    8.2821   -0.0497   22.0463 N   0  0  0  0  0  0
    8.3649   -1.2305   22.7011 C   0  0  0  0  0  0
    7.6365   -2.1928   22.4487 O   0  0  0  0  0  0
    9.4206   -1.3616   23.8319 C   0  0  2  0  0  0
    9.0226   -0.5637   25.0987 C   0  0  0  0  0  0
    9.3765    0.9307   24.9668 C   0  0  0  0  0  0
   10.7696    1.1136   24.7054 O   0  0  0  0  0  0
   11.3399    0.3066   23.7354 C   0  0  0  0  0  0
   12.5654    0.7486   23.2370 C   0  0  0  0  0  0
   13.2688   -0.0274   22.3191 C   0  0  0  0  0  0
   12.7513   -1.2535   21.9080 C   0  0  0  0  0  0
   13.6134   -2.2127   20.7635 Cl  0  0  0  0  0  0
   11.5236   -1.6929   22.4010 C   0  0  0  0  0  0
   10.7984   -0.9296   23.3266 C   0  0  0  0  0  0
    6.3401    1.1867   21.1146 C   0  0  0  0  0  0
    6.0887    1.9368   22.2957 C   0  0  0  0  0  0
    3.4379    3.8005   21.2541 H   0  0  0  0  0  0
    3.8179    2.5246   19.1902 H   0  0  0  0  0  0
    5.1355    0.7903   17.9418 H   0  0  0  0  0  0
    8.3245   -1.1871   19.6517 H   0  0  0  0  0  0
    8.8702    0.7084   22.3582 H   0  0  0  0  0  0
    9.4199   -2.4291   24.0643 H   0  0  0  0  0  0
    7.9594   -0.6729   25.3219 H   0  0  0  0  0  0
    9.5656   -0.9609   25.9586 H   0  0  0  0  0  0
    8.7953    1.4045   24.1779 H   0  0  0  0  0  0
    9.1275    1.4526   25.8919 H   0  0  0  0  0  0
   12.9762    1.6901   23.5703 H   0  0  0  0  0  0
   14.2125    0.3248   21.9298 H   0  0  0  0  0  0
   11.1264   -2.6365   22.0509 H   0  0  0  0  0  0
    6.7115    1.7746   23.1621 H   0  0  0  0  0  0
  1  2  3  0  0  0
  2  3  1  0  0  0
  3 26  2  0  0  0
  3  4  1  0  0  0
  4  5  2  0  0  0
  4 27  1  0  0  0
  5  6  1  0  0  0
  5 28  1  0  0  0
  6 25  2  0  0  0
  6  7  1  0  0  0
  7  8  2  0  0  0
  7 29  1  0  0  0
  8  9  1  0  0  0
  9 10  2  0  0  0
  9 30  1  0  0  0
 10 11  1  0  0  0
 10 25  1  0  0  0
 11 12  1  0  0  0
 11 31  1  0  0  0
 12 13  2  0  0  0
 12 14  1  0  0  0
 14 24  1  0  0  0
 14 15  1  0  0  0
 14 32  1  0  0  0
 15 16  1  0  0  0
 15 33  1  0  0  0
 15 34  1  0  0  0
 16 17  1  0  0  0
 16 35  1  0  0  0
 16 36  1  0  0  0
 17 18  1  0  0  0
 18 24  2  0  0  0
 18 19  1  0  0  0
 19 20  2  0  0  0
 19 37  1  0  0  0
 20 21  1  0  0  0
 20 38  1  0  0  0
 21 22  1  0  0  0
 21 23  2  0  0  0
 23 24  1  0  0  0
 23 39  1  0  0  0
 25 26  1  0  0  0
 26 40  1  0  0  0
M  END
> <r_i_docking_score>
-5.94194730552796

$$$$
ligprep_5.maegz:237
                    3D
 Schrodinger Suite 2020-4.
 45 48  0  0  1  0            999 V2000
    8.5091    5.5630   22.7068 C   0  0  0  0  0  0
    9.5353    5.1414   24.2248 S   0  0  0  0  0  0
    8.6752    4.4478   25.1893 O   0  0  0  0  0  0
   10.2839    6.3390   24.6236 O   0  0  0  0  0  0
   10.7302    3.9463   23.6268 C   0  0  0  0  0  0
   11.9453    4.3987   23.1159 C   0  0  0  0  0  0
   12.9052    3.4954   22.6810 C   0  0  0  0  0  0
   12.6453    2.1073   22.7280 C   0  0  0  0  0  0
   13.5918    1.1553   22.3080 C   0  0  0  0  0  0
   13.3957   -0.1762   22.3077 N   0  0  0  0  0  0
   12.1900   -0.6275   22.7114 C   0  0  0  0  0  0
   11.1655    0.1935   23.2216 C   0  0  0  0  0  0
    9.9446   -0.3182   23.7326 N   0  0  0  0  0  0
    9.6130   -1.5919   24.0557 C   0  0  0  0  0  0
   10.3592   -2.5604   23.9077 O   0  0  0  0  0  0
    8.2168   -1.8042   24.7008 C   0  0  2  0  0  0
    8.3667   -2.2531   26.1798 C   0  0  0  0  0  0
    8.6400   -3.7670   26.2936 C   0  0  0  0  0  0
    7.5611   -4.5012   25.7158 O   0  0  0  0  0  0
    7.1869   -4.1280   24.4379 C   0  0  0  0  0  0
    6.4663   -5.0883   23.7301 C   0  0  0  0  0  0
    5.9710   -4.7980   22.4616 C   0  0  0  0  0  0
    6.1938   -3.5405   21.9033 C   0  0  0  0  0  0
    5.5701   -3.1778   20.3352 Cl  0  0  0  0  0  0
    6.9154   -2.5785   22.6137 C   0  0  0  0  0  0
    7.4144   -2.8432   23.8991 C   0  0  0  0  0  0
   11.3929    1.6156   23.2192 C   0  0  0  0  0  0
   10.4482    2.5796   23.6837 C   0  0  0  0  0  0
    7.7693    6.3115   22.9811 H   0  0  0  0  0  0
    9.1663    5.9527   21.9288 H   0  0  0  0  0  0
    8.0125    4.6611   22.3518 H   0  0  0  0  0  0
   12.1545    5.4589   23.0695 H   0  0  0  0  0  0
   13.8565    3.8479   22.3076 H   0  0  0  0  0  0
   14.5532    1.4890   21.9430 H   0  0  0  0  0  0
   12.0913   -1.6983   22.6355 H   0  0  0  0  0  0
    9.2468    0.3813   23.9289 H   0  0  0  0  0  0
    7.7253   -0.8293   24.6731 H   0  0  0  0  0  0
    7.4413   -2.0367   26.7143 H   0  0  0  0  0  0
    9.1559   -1.6982   26.6914 H   0  0  0  0  0  0
    8.7383   -4.0607   27.3420 H   0  0  0  0  0  0
    9.5769   -4.0401   25.8053 H   0  0  0  0  0  0
    6.2779   -6.0527   24.1732 H   0  0  0  0  0  0
    5.4059   -5.5463   21.9200 H   0  0  0  0  0  0
    7.0810   -1.6108   22.1639 H   0  0  0  0  0  0
    9.5020    2.2513   24.0882 H   0  0  0  0  0  0
  1  2  1  0  0  0
  1 29  1  0  0  0
  1 30  1  0  0  0
  1 31  1  0  0  0
  2  3  2  0  0  0
  2  4  2  0  0  0
  2  5  1  0  0  0
  5 28  2  0  0  0
  5  6  1  0  0  0
  6  7  2  0  0  0
  6 32  1  0  0  0
  7  8  1  0  0  0
  7 33  1  0  0  0
  8 27  2  0  0  0
  8  9  1  0  0  0
  9 10  2  0  0  0
  9 34  1  0  0  0
 10 11  1  0  0  0
 11 12  2  0  0  0
 11 35  1  0  0  0
 12 13  1  0  0  0
 12 27  1  0  0  0
 13 14  1  0  0  0
 13 36  1  0  0  0
 14 15  2  0  0  0
 14 16  1  0  0  0
 16 26  1  0  0  0
 16 17  1  0  0  0
 16 37  1  0  0  0
 17 18  1  0  0  0
 17 38  1  0  0  0
 17 39  1  0  0  0
 18 19  1  0  0  0
 18 40  1  0  0  0
 18 41  1  0  0  0
 19 20  1  0  0  0
 20 26  2  0  0  0
 20 21  1  0  0  0
 21 22  2  0  0  0
 21 42  1  0  0  0
 22 23  1  0  0  0
 22 43  1  0  0  0
 23 24  1  0  0  0
 23 25  2  0  0  0
 25 26  1  0  0  0
 25 44  1  0  0  0
 27 28  1  0  0  0
 28 45  1  0  0  0
M  END
> <r_i_docking_score>
-6.30321717792804

$$$$
ligprep_5.maegz:238
                    3D
 Schrodinger Suite 2020-4.
 40 43  0  0  1  0            999 V2000
    7.9164   -2.4429   26.4226 O   0  0  0  0  0  0
    8.4149   -3.0732   25.4831 C   0  0  0  0  0  0
    9.1715   -2.5013   24.5141 N   0  0  0  0  0  0
    9.5935   -1.1549   24.4075 C   0  0  0  0  0  0
    8.9003   -0.0837   24.9989 C   0  0  0  0  0  0
    9.3084    1.2045   24.9581 N   0  0  0  0  0  0
   10.4574    1.4752   24.3052 C   0  0  0  0  0  0
   11.2428    0.5118   23.6396 C   0  0  0  0  0  0
   12.4387    0.8490   22.9611 C   0  0  0  0  0  0
   13.1696   -0.1386   22.3081 C   0  0  0  0  0  0
   12.7321   -1.4584   22.3077 C   0  0  0  0  0  0
   11.5670   -1.8208   22.9789 C   0  0  0  0  0  0
   10.7896   -0.8466   23.6715 C   0  0  0  0  0  0
    8.2448   -4.6147   25.3997 C   0  0  1  0  0  0
    8.1719   -5.2535   26.8201 C   0  0  0  0  0  0
    6.8406   -5.1331   27.4094 N   0  0  1  0  0  0
    5.8466   -5.8495   26.6181 C   0  0  0  0  0  0
    5.8673   -5.5119   25.1285 C   0  0  0  0  0  0
    4.7661   -5.8320   24.3277 C   0  0  0  0  0  0
    4.7924   -5.6263   22.9528 C   0  0  0  0  0  0
    5.9276   -5.0896   22.3566 C   0  0  0  0  0  0
    5.9697   -4.8529   20.6498 Cl  0  0  0  0  0  0
    7.0290   -4.7541   23.1409 C   0  0  0  0  0  0
    7.0235   -4.9609   24.5292 C   0  0  0  0  0  0
    9.5557   -3.1201   23.8165 H   0  0  0  0  0  0
    7.9757   -0.2298   25.5356 H   0  0  0  0  0  0
   10.7620    2.5110   24.2949 H   0  0  0  0  0  0
   12.7754    1.8757   22.9427 H   0  0  0  0  0  0
   14.0730    0.1270   21.7819 H   0  0  0  0  0  0
   13.3001   -2.2107   21.7816 H   0  0  0  0  0  0
   11.2567   -2.8538   22.9651 H   0  0  0  0  0  0
    9.1536   -4.9826   24.9221 H   0  0  0  0  0  0
    8.9064   -4.8078   27.4933 H   0  0  0  0  0  0
    8.4353   -6.3112   26.7581 H   0  0  0  0  0  0
    6.8352   -5.4898   28.3539 H   0  0  0  0  0  0
    4.8711   -5.6001   27.0368 H   0  0  0  0  0  0
    5.9703   -6.9256   26.7416 H   0  0  0  0  0  0
    3.8857   -6.2683   24.7771 H   0  0  0  0  0  0
    3.9388   -5.8970   22.3507 H   0  0  0  0  0  0
    7.9044   -4.3453   22.6604 H   0  0  0  0  0  0
  1  2  2  0  0  0
  2  3  1  0  0  0
  2 14  1  0  0  0
  3  4  1  0  0  0
  3 25  1  0  0  0
  4 13  2  0  0  0
  4  5  1  0  0  0
  5  6  2  0  0  0
  5 26  1  0  0  0
  6  7  1  0  0  0
  7  8  2  0  0  0
  7 27  1  0  0  0
  8 13  1  0  0  0
  8  9  1  0  0  0
  9 10  2  0  0  0
  9 28  1  0  0  0
 10 11  1  0  0  0
 10 29  1  0  0  0
 11 12  2  0  0  0
 11 30  1  0  0  0
 12 13  1  0  0  0
 12 31  1  0  0  0
 14 24  1  0  0  0
 14 15  1  0  0  0
 14 32  1  0  0  0
 15 16  1  0  0  0
 15 33  1  0  0  0
 15 34  1  0  0  0
 16 17  1  0  0  0
 16 35  1  0  0  0
 17 18  1  0  0  0
 17 36  1  0  0  0
 17 37  1  0  0  0
 18 24  2  0  0  0
 18 19  1  0  0  0
 19 20  2  0  0  0
 19 38  1  0  0  0
 20 21  1  0  0  0
 20 39  1  0  0  0
 21 22  1  0  0  0
 21 23  2  0  0  0
 23 24  1  0  0  0
 23 40  1  0  0  0
M  END
> <r_i_docking_score>
-6.57359051145074

$$$$
ligprep_5.maegz:239
                    3D
 Schrodinger Suite 2020-4.
 38 41  0  0  1  0            999 V2000
   10.3142   -2.8530   23.9079 O   0  0  0  0  0  0
    9.5764   -1.8782   24.0483 C   0  0  0  0  0  0
    9.9127   -0.6132   23.7053 N   0  0  0  0  0  0
   11.1353   -0.1101   23.2001 C   0  0  0  0  0  0
   12.1714   -0.9259   22.7077 C   0  0  0  0  0  0
   13.3758   -0.4651   22.2990 N   0  0  0  0  0  0
   13.5694    0.8695   22.3080 C   0  0  0  0  0  0
   12.6065    1.8071   22.7220 C   0  0  0  0  0  0
   12.8092    3.2049   22.7062 C   0  0  0  0  0  0
   11.8911    4.1105   23.1082 N   0  0  0  0  0  0
   10.7045    3.6336   23.5541 C   0  0  0  0  0  0
   10.3892    2.2745   23.6226 C   0  0  0  0  0  0
   11.3508    1.3104   23.1901 C   0  0  0  0  0  0
    8.1785   -2.0615   24.6997 C   0  0  2  0  0  0
    8.3153   -2.5429   26.1700 C   0  0  0  0  0  0
    8.5197   -4.0691   26.2553 C   0  0  0  0  0  0
    7.4038   -4.7430   25.6688 O   0  0  0  0  0  0
    7.0541   -4.3339   24.3945 C   0  0  0  0  0  0
    6.3021   -5.2506   23.6593 C   0  0  0  0  0  0
    5.8506   -4.9233   22.3845 C   0  0  0  0  0  0
    6.1366   -3.6684   21.8528 C   0  0  0  0  0  0
    5.5696   -3.2515   20.2793 Cl  0  0  0  0  0  0
    6.8775   -2.7453   22.5912 C   0  0  0  0  0  0
    7.3449   -3.0525   23.8772 C   0  0  0  0  0  0
    9.2143    0.0908   23.8821 H   0  0  0  0  0  0
   12.0785   -1.9980   22.6420 H   0  0  0  0  0  0
   14.5283    1.2149   21.9491 H   0  0  0  0  0  0
   13.7519    3.6049   22.3625 H   0  0  0  0  0  0
    9.9834    4.3763   23.8614 H   0  0  0  0  0  0
    9.4217    1.9674   23.9891 H   0  0  0  0  0  0
    7.7120   -1.0746   24.6935 H   0  0  0  0  0  0
    7.4066   -2.2889   26.7183 H   0  0  0  0  0  0
    9.1342   -2.0345   26.6848 H   0  0  0  0  0  0
    8.6088   -4.3832   27.2956 H   0  0  0  0  0  0
    9.4389   -4.3705   25.7527 H   0  0  0  0  0  0
    6.0577   -6.2135   24.0806 H   0  0  0  0  0  0
    5.2724   -5.6413   21.8214 H   0  0  0  0  0  0
    7.0927   -1.7783   22.1578 H   0  0  0  0  0  0
  1  2  2  0  0  0
  2  3  1  0  0  0
  2 14  1  0  0  0
  3  4  1  0  0  0
  3 25  1  0  0  0
  4 13  2  0  0  0
  4  5  1  0  0  0
  5  6  2  0  0  0
  5 26  1  0  0  0
  6  7  1  0  0  0
  7  8  2  0  0  0
  7 27  1  0  0  0
  8 13  1  0  0  0
  8  9  1  0  0  0
  9 10  2  0  0  0
  9 28  1  0  0  0
 10 11  1  0  0  0
 11 12  2  0  0  0
 11 29  1  0  0  0
 12 13  1  0  0  0
 12 30  1  0  0  0
 14 15  1  0  0  0
 14 24  1  0  0  0
 14 31  1  0  0  0
 15 16  1  0  0  0
 15 32  1  0  0  0
 15 33  1  0  0  0
 16 17  1  0  0  0
 16 34  1  0  0  0
 16 35  1  0  0  0
 17 18  1  0  0  0
 18 24  2  0  0  0
 18 19  1  0  0  0
 19 20  2  0  0  0
 19 36  1  0  0  0
 20 21  1  0  0  0
 20 37  1  0  0  0
 21 22  1  0  0  0
 21 23  2  0  0  0
 23 24  1  0  0  0
 23 38  1  0  0  0
M  END
> <r_i_docking_score>
-5.96597963269069

$$$$
ligprep_5.maegz:240
                    3D
 Schrodinger Suite 2020-4.
 54 57  0  0  1  0            999 V2000
    9.7928   -2.4539   22.1081 C   0  0  0  0  0  0
    9.8267   -1.1072   22.5551 O   0  0  0  0  0  0
   11.0304   -0.4328   22.5645 C   0  0  0  0  0  0
   12.2497   -1.0880   22.3088 C   0  0  0  0  0  0
   13.4528   -0.3971   22.3080 C   0  0  0  0  0  0
   13.4648    0.9679   22.5544 C   0  0  0  0  0  0
   12.2747    1.6331   22.8199 C   0  0  0  0  0  0
   12.3321    2.9988   23.1066 N   0  0  0  0  0  0
   11.3114    3.7784   23.5033 C   0  0  0  0  0  0
   11.4999    4.9322   23.8693 O   0  0  0  0  0  0
   10.0271    3.1038   23.4822 C   0  0  0  0  0  0
    9.8282    1.7867   23.1848 C   0  0  0  0  0  0
    8.4459    1.3435   23.2314 C   0  0  0  0  0  0
    7.7879    1.3334   24.2731 O   0  0  0  0  0  0
    7.9413    1.0148   22.0288 N   0  0  0  0  0  0
    6.5530    0.6321   21.7471 C   0  0  0  0  0  0
    6.3625   -0.8699   21.4652 C   0  0  0  0  0  0
    6.4379   -1.6334   22.6696 O   0  0  0  0  0  0
    6.2637   -3.0092   22.6241 C   0  0  0  0  0  0
    6.0333   -3.7210   21.4338 C   0  0  0  0  0  0
    5.9411   -5.1109   21.4393 C   0  0  0  0  0  0
    6.0143   -5.8085   22.6392 C   0  0  0  0  0  0
    6.2200   -5.1158   23.8289 C   0  0  0  0  0  0
    6.3837   -3.7214   23.8302 C   0  0  0  0  0  0
    6.6594   -2.9970   24.9755 O   0  0  0  0  0  0
    7.2093   -3.6365   26.1290 C   0  0  0  0  0  0
    8.6118   -4.2329   25.8752 C   0  0  0  0  0  0
    9.2976   -4.9863   26.9866 C   0  0  0  0  0  0
    8.8316   -5.7282   25.7608 C   0  0  0  0  0  0
   11.0387    0.9528   22.8417 C   0  0  0  0  0  0
    8.7693   -2.8040   22.0465 H   0  0  0  0  0  0
   10.2194   -2.5533   21.1099 H   0  0  0  0  0  0
   10.3166   -3.1118   22.8028 H   0  0  0  0  0  0
   12.2888   -2.1475   22.1047 H   0  0  0  0  0  0
   14.3694   -0.9295   22.1116 H   0  0  0  0  0  0
   14.3984    1.5087   22.5401 H   0  0  0  0  0  0
   13.2242    3.4660   23.1120 H   0  0  0  0  0  0
    9.1889    3.7420   23.7301 H   0  0  0  0  0  0
    8.5662    1.0482   21.2391 H   0  0  0  0  0  0
    6.2026    1.2116   20.8928 H   0  0  0  0  0  0
    5.8983    0.9147   22.5750 H   0  0  0  0  0  0
    7.1154   -1.2076   20.7500 H   0  0  0  0  0  0
    5.3850   -1.0158   21.0083 H   0  0  0  0  0  0
    5.9654   -3.2132   20.4845 H   0  0  0  0  0  0
    5.7982   -5.6490   20.5142 H   0  0  0  0  0  0
    5.9145   -6.8851   22.6481 H   0  0  0  0  0  0
    6.2555   -5.6787   24.7458 H   0  0  0  0  0  0
    6.5160   -4.3651   26.5511 H   0  0  0  0  0  0
    7.3063   -2.8494   26.8768 H   0  0  0  0  0  0
    9.2451   -3.5548   25.3013 H   0  0  0  0  0  0
    8.7581   -5.1501   27.9144 H   0  0  0  0  0  0
   10.3697   -4.8761   27.1386 H   0  0  0  0  0  0
    9.5801   -6.0979   25.0624 H   0  0  0  0  0  0
    8.0215   -6.4451   25.9083 H   0  0  0  0  0  0
  1  2  1  0  0  0
  1 31  1  0  0  0
  1 32  1  0  0  0
  1 33  1  0  0  0
  2  3  1  0  0  0
  3 30  2  0  0  0
  3  4  1  0  0  0
  4  5  2  0  0  0
  4 34  1  0  0  0
  5  6  1  0  0  0
  5 35  1  0  0  0
  6  7  2  0  0  0
  6 36  1  0  0  0
  7 30  1  0  0  0
  7  8  1  0  0  0
  8  9  1  0  0  0
  8 37  1  0  0  0
  9 10  2  0  0  0
  9 11  1  0  0  0
 11 12  2  0  0  0
 11 38  1  0  0  0
 12 13  1  0  0  0
 12 30  1  0  0  0
 13 14  2  0  0  0
 13 15  1  0  0  0
 15 16  1  0  0  0
 15 39  1  0  0  0
 16 17  1  0  0  0
 16 40  1  0  0  0
 16 41  1  0  0  0
 17 18  1  0  0  0
 17 42  1  0  0  0
 17 43  1  0  0  0
 18 19  1  0  0  0
 19 24  2  0  0  0
 19 20  1  0  0  0
 20 21  2  0  0  0
 20 44  1  0  0  0
 21 22  1  0  0  0
 21 45  1  0  0  0
 22 23  2  0  0  0
 22 46  1  0  0  0
 23 24  1  0  0  0
 23 47  1  0  0  0
 24 25  1  0  0  0
 25 26  1  0  0  0
 26 27  1  0  0  0
 26 48  1  0  0  0
 26 49  1  0  0  0
 27 29  1  0  0  0
 27 28  1  0  0  0
 27 50  1  0  0  0
 28 29  1  0  0  0
 28 51  1  0  0  0
 28 52  1  0  0  0
 29 53  1  0  0  0
 29 54  1  0  0  0
M  END
> <r_i_docking_score>
-5.67637294852971

$$$$
ligprep_5.maegz:241
                    3D
 Schrodinger Suite 2020-4.
 46 49  0  0  1  0            999 V2000
   13.5521    0.0212   22.5583 C   0  0  0  0  0  0
   12.0513   -0.1252   22.7261 C   0  0  0  0  0  0
   11.3693    0.6340   23.6790 C   0  0  0  0  0  0
    9.9861    0.5191   23.7995 C   0  0  0  0  0  0
    9.2838   -0.3480   22.9555 C   0  0  0  0  0  0
    7.8792   -0.3800   23.0210 N   0  0  0  0  0  0
    7.1682    0.7712   22.4173 C   0  0  0  0  0  0
    6.7089    0.5881   20.9705 C   0  0  0  0  0  0
    5.7456    1.3495   20.3084 C   0  0  0  0  0  0
    5.5701    0.8027   18.6701 S   0  0  0  0  0  0
    6.7868   -0.3734   19.0097 C   0  0  0  0  0  0
    7.2675   -0.3535   20.2251 N   0  0  0  0  0  0
    7.1862   -1.3471   23.6927 C   0  0  0  0  0  0
    5.9807   -1.2358   23.9309 O   0  0  0  0  0  0
    7.8745   -2.6498   24.1650 C   0  0  0  0  0  0
    7.1900   -3.8870   23.5712 C   0  0  0  0  0  0
    7.5683   -4.3318   22.3014 C   0  0  0  0  0  0
    7.0019   -5.3765   21.6572 N   0  0  0  0  0  0
    6.0074   -6.0262   22.2940 C   0  0  0  0  0  0
    5.5194   -5.6922   23.5751 C   0  0  0  0  0  0
    4.4732   -6.4154   24.1961 C   0  0  0  0  0  0
    4.0295   -6.0459   25.4617 C   0  0  0  0  0  0
    4.5954   -4.9588   26.1182 C   0  0  0  0  0  0
    5.6216   -4.2244   25.5277 C   0  0  0  0  0  0
    6.1219   -4.5773   24.2420 C   0  0  0  0  0  0
    9.9685   -1.1132   22.0058 C   0  0  0  0  0  0
   11.3530   -1.0124   21.9083 C   0  0  0  0  0  0
   13.9701    0.7431   23.2592 H   0  0  0  0  0  0
   14.0458   -0.9388   22.7075 H   0  0  0  0  0  0
   13.7849    0.3516   21.5451 H   0  0  0  0  0  0
   11.9048    1.3242   24.3141 H   0  0  0  0  0  0
    9.4602    1.1209   24.5269 H   0  0  0  0  0  0
    7.8050    1.6546   22.4811 H   0  0  0  0  0  0
    6.3025    1.0191   23.0345 H   0  0  0  0  0  0
    5.1566    2.1746   20.6822 H   0  0  0  0  0  0
    7.1262   -1.0598   18.2478 H   0  0  0  0  0  0
    8.9278   -2.6863   23.8953 H   0  0  0  0  0  0
    7.8780   -2.6767   25.2527 H   0  0  0  0  0  0
    8.3609   -3.8354   21.7625 H   0  0  0  0  0  0
    5.5707   -6.8516   21.7546 H   0  0  0  0  0  0
    4.0268   -7.2537   23.6802 H   0  0  0  0  0  0
    3.2360   -6.6034   25.9371 H   0  0  0  0  0  0
    4.2336   -4.6795   27.0971 H   0  0  0  0  0  0
    6.0306   -3.3810   26.0603 H   0  0  0  0  0  0
    9.4365   -1.7739   21.3359 H   0  0  0  0  0  0
   11.8806   -1.6023   21.1727 H   0  0  0  0  0  0
  1  2  1  0  0  0
  1 28  1  0  0  0
  1 29  1  0  0  0
  1 30  1  0  0  0
  2 27  2  0  0  0
  2  3  1  0  0  0
  3  4  2  0  0  0
  3 31  1  0  0  0
  4  5  1  0  0  0
  4 32  1  0  0  0
  5  6  1  0  0  0
  5 26  2  0  0  0
  6  7  1  0  0  0
  6 13  1  0  0  0
  7  8  1  0  0  0
  7 33  1  0  0  0
  7 34  1  0  0  0
  8 12  1  0  0  0
  8  9  2  0  0  0
  9 10  1  0  0  0
  9 35  1  0  0  0
 10 11  1  0  0  0
 11 12  2  0  0  0
 11 36  1  0  0  0
 13 14  2  0  0  0
 13 15  1  0  0  0
 15 16  1  0  0  0
 15 37  1  0  0  0
 15 38  1  0  0  0
 16 25  2  0  0  0
 16 17  1  0  0  0
 17 18  2  0  0  0
 17 39  1  0  0  0
 18 19  1  0  0  0
 19 20  2  0  0  0
 19 40  1  0  0  0
 20 25  1  0  0  0
 20 21  1  0  0  0
 21 22  2  0  0  0
 21 41  1  0  0  0
 22 23  1  0  0  0
 22 42  1  0  0  0
 23 24  2  0  0  0
 23 43  1  0  0  0
 24 25  1  0  0  0
 24 44  1  0  0  0
 26 27  1  0  0  0
 26 45  1  0  0  0
 27 46  1  0  0  0
M  END
> <r_i_docking_score>
-4.08756374965493

$$$$
ligprep_5.maegz:242
                    3D
 Schrodinger Suite 2020-4.
 53 56  0  0  1  0            999 V2000
   14.1661    3.9715   22.3081 C   0  0  0  0  0  0
   13.1679    2.8342   22.4459 C   0  0  0  0  0  0
   13.5408    1.6684   22.3081 O   0  0  0  0  0  0
   11.9197    3.2211   22.7571 N   0  0  0  0  0  0
   10.7919    2.4185   22.9505 C   0  0  0  0  0  0
    9.8130    2.9378   23.7967 C   0  0  0  0  0  0
    8.6431    2.2115   23.9960 C   0  0  0  0  0  0
    8.4553    0.9932   23.3315 C   0  0  0  0  0  0
    7.2243    0.3084   23.4657 N   0  0  0  0  0  0
    6.0375    1.0945   23.0558 C   0  0  0  0  0  0
    5.8085    1.2059   21.5466 C   0  0  0  0  0  0
    5.0909    2.2923   21.0324 C   0  0  0  0  0  0
    4.7710    2.3472   19.6736 C   0  0  0  0  0  0
    5.1723    1.3209   18.8189 C   0  0  0  0  0  0
    5.9058    0.2478   19.3227 C   0  0  0  0  0  0
    6.3690   -1.0603   18.3064 Cl  0  0  0  0  0  0
    6.2387    0.2046   20.6714 C   0  0  0  0  0  0
    7.1825   -0.9957   23.8935 C   0  0  0  0  0  0
    8.2070   -1.6383   24.1410 O   0  0  0  0  0  0
    5.8400   -1.7287   24.1661 C   0  0  0  0  0  0
    5.7075   -3.1413   23.5535 C   0  0  0  0  0  0
    6.1135   -3.3936   22.2345 C   0  0  0  0  0  0
    5.9841   -4.5829   21.6050 N   0  0  0  0  0  0
    5.4473   -5.5992   22.3098 C   0  0  0  0  0  0
    4.9696   -5.4951   23.6322 C   0  0  0  0  0  0
    4.3887   -6.5978   24.3069 C   0  0  0  0  0  0
    3.9156   -6.4501   25.6063 C   0  0  0  0  0  0
    4.0003   -5.2193   26.2475 C   0  0  0  0  0  0
    4.5674   -4.1168   25.6081 C   0  0  0  0  0  0
    5.0823   -4.2220   24.2798 C   0  0  0  0  0  0
    9.4900    0.5304   22.5051 C   0  0  0  0  0  0
   10.6432    1.2206   22.3149 N   0  0  0  0  0  0
   13.7913    4.7407   21.6309 H   0  0  0  0  0  0
   15.0998    3.5761   21.9082 H   0  0  0  0  0  0
   14.3694    4.4289   23.2749 H   0  0  0  0  0  0
   11.7730    4.2054   22.9152 H   0  0  0  0  0  0
    9.9433    3.8885   24.2925 H   0  0  0  0  0  0
    7.8846    2.6084   24.6533 H   0  0  0  0  0  0
    5.1180    0.7428   23.5110 H   0  0  0  0  0  0
    6.1382    2.1111   23.4325 H   0  0  0  0  0  0
    4.7544    3.0858   21.6835 H   0  0  0  0  0  0
    4.2131    3.1857   19.2819 H   0  0  0  0  0  0
    4.9103    1.3607   17.7722 H   0  0  0  0  0  0
    6.8129   -0.6293   21.0353 H   0  0  0  0  0  0
    5.8200   -1.7835   25.2507 H   0  0  0  0  0  0
    4.9478   -1.1793   23.8894 H   0  0  0  0  0  0
    6.5749   -2.6256   21.6372 H   0  0  0  0  0  0
    5.3777   -6.5468   21.7956 H   0  0  0  0  0  0
    4.3177   -7.5514   23.8050 H   0  0  0  0  0  0
    3.4763   -7.2940   26.1203 H   0  0  0  0  0  0
    3.6233   -5.1192   27.2563 H   0  0  0  0  0  0
    4.6023   -3.1855   26.1481 H   0  0  0  0  0  0
    9.4027   -0.4022   21.9681 H   0  0  0  0  0  0
  1  2  1  0  0  0
  1 33  1  0  0  0
  1 34  1  0  0  0
  1 35  1  0  0  0
  2  3  2  0  0  0
  2  4  1  0  0  0
  4  5  1  0  0  0
  4 36  1  0  0  0
  5 32  2  0  0  0
  5  6  1  0  0  0
  6  7  2  0  0  0
  6 37  1  0  0  0
  7  8  1  0  0  0
  7 38  1  0  0  0
  8  9  1  0  0  0
  8 31  2  0  0  0
  9 10  1  0  0  0
  9 18  1  0  0  0
 10 11  1  0  0  0
 10 39  1  0  0  0
 10 40  1  0  0  0
 11 17  2  0  0  0
 11 12  1  0  0  0
 12 13  2  0  0  0
 12 41  1  0  0  0
 13 14  1  0  0  0
 13 42  1  0  0  0
 14 15  2  0  0  0
 14 43  1  0  0  0
 15 16  1  0  0  0
 15 17  1  0  0  0
 17 44  1  0  0  0
 18 19  2  0  0  0
 18 20  1  0  0  0
 20 21  1  0  0  0
 20 45  1  0  0  0
 20 46  1  0  0  0
 21 30  2  0  0  0
 21 22  1  0  0  0
 22 23  2  0  0  0
 22 47  1  0  0  0
 23 24  1  0  0  0
 24 25  2  0  0  0
 24 48  1  0  0  0
 25 30  1  0  0  0
 25 26  1  0  0  0
 26 27  2  0  0  0
 26 49  1  0  0  0
 27 28  1  0  0  0
 27 50  1  0  0  0
 28 29  2  0  0  0
 28 51  1  0  0  0
 29 30  1  0  0  0
 29 52  1  0  0  0
 31 32  1  0  0  0
 31 53  1  0  0  0
M  END
> <r_i_docking_score>
-4.46274629872647

$$$$
ligprep_5.maegz:243
                    3D
 Schrodinger Suite 2020-4.
 34 36  0  0  1  0            999 V2000
    9.0315   -1.0544   21.9907 O   0  0  0  0  0  0
    8.8952    0.0332   22.5516 C   0  0  0  0  0  0
    9.8000    0.3605   23.7451 C   0  0  0  0  0  0
   11.1628    0.8665   23.2712 C   0  0  0  0  0  0
   12.1208   -0.0576   22.8379 C   0  0  0  0  0  0
   13.3423    0.2797   22.3697 N   0  0  0  0  0  0
   13.6343    1.5957   22.3080 C   0  0  0  0  0  0
   12.7697    2.6370   22.7079 C   0  0  0  0  0  0
   13.1471    4.0000   22.6393 C   0  0  0  0  0  0
   12.2587    4.9888   23.0486 C   0  0  0  0  0  0
   10.9925    4.6496   23.5107 C   0  0  0  0  0  0
   10.5950    3.3161   23.5924 C   0  0  0  0  0  0
   11.4784    2.2681   23.2014 C   0  0  0  0  0  0
    8.0103    0.9890   22.1977 N   0  0  0  0  0  0
    7.0792    0.9980   21.1416 C   0  0  0  0  0  0
    6.1847    2.0737   21.1084 C   0  0  0  0  0  0
    5.2333    2.1763   20.0917 C   0  0  0  0  0  0
    5.1697    1.2040   19.0959 C   0  0  0  0  0  0
    6.0552    0.1283   19.1201 C   0  0  0  0  0  0
    5.9711   -1.0905   17.9083 Cl  0  0  0  0  0  0
    7.0092    0.0248   20.1301 C   0  0  0  0  0  0
    9.3179    1.0420   24.4442 H   0  0  0  0  0  0
    9.9453   -0.5579   24.3150 H   0  0  0  0  0  0
   11.9044   -1.1169   22.8505 H   0  0  0  0  0  0
   14.6132    1.8423   21.9220 H   0  0  0  0  0  0
   14.1304    4.2658   22.2800 H   0  0  0  0  0  0
   12.5523    6.0280   23.0005 H   0  0  0  0  0  0
   10.3090    5.4314   23.8118 H   0  0  0  0  0  0
    9.6054    3.0951   23.9561 H   0  0  0  0  0  0
    7.9960    1.8173   22.7708 H   0  0  0  0  0  0
    6.2200    2.8466   21.8627 H   0  0  0  0  0  0
    4.5571    3.0203   20.0675 H   0  0  0  0  0  0
    4.4344    1.2892   18.3073 H   0  0  0  0  0  0
    7.6790   -0.8201   20.0970 H   0  0  0  0  0  0
  1  2  2  0  0  0
  2  3  1  0  0  0
  2 14  1  0  0  0
  3  4  1  0  0  0
  3 22  1  0  0  0
  3 23  1  0  0  0
  4 13  2  0  0  0
  4  5  1  0  0  0
  5  6  2  0  0  0
  5 24  1  0  0  0
  6  7  1  0  0  0
  7  8  2  0  0  0
  7 25  1  0  0  0
  8 13  1  0  0  0
  8  9  1  0  0  0
  9 10  2  0  0  0
  9 26  1  0  0  0
 10 11  1  0  0  0
 10 27  1  0  0  0
 11 12  2  0  0  0
 11 28  1  0  0  0
 12 13  1  0  0  0
 12 29  1  0  0  0
 14 15  1  0  0  0
 14 30  1  0  0  0
 15 21  2  0  0  0
 15 16  1  0  0  0
 16 17  2  0  0  0
 16 31  1  0  0  0
 17 18  1  0  0  0
 17 32  1  0  0  0
 18 19  2  0  0  0
 18 33  1  0  0  0
 19 20  1  0  0  0
 19 21  1  0  0  0
 21 34  1  0  0  0
M  END
> <r_i_docking_score>
-6.58494922329912

$$$$
ligprep_5.maegz:244
                    3D
 Schrodinger Suite 2020-4.
 39 42  0  0  1  0            999 V2000
    9.6169    4.1218   24.7075 O   0  0  0  0  0  0
    9.9806    3.0207   24.3053 C   0  0  0  0  0  0
    9.2116    1.7021   24.5782 C   0  0  0  0  0  0
    9.4165    0.6063   23.4768 C   0  0  1  0  0  0
    8.6763    0.9627   22.1569 C   0  0  0  0  0  0
    9.0114    1.9471   21.4912 O   0  0  0  0  0  0
    7.6714    0.1459   21.7913 N   0  0  0  0  0  0
    6.8531    0.3910   20.6834 C   0  0  0  0  0  0
    7.0712   -0.3284   19.5055 C   0  0  0  0  0  0
    6.3409   -0.1626   18.3807 N   0  0  0  0  0  0
    5.3427    0.7476   18.4155 C   0  0  0  0  0  0
    4.9935    1.5178   19.5444 C   0  0  0  0  0  0
    3.9045    2.4203   19.5524 C   0  0  0  0  0  0
    3.6112    3.1470   20.7014 C   0  0  0  0  0  0
    4.3909    3.0132   21.8445 C   0  0  0  0  0  0
    5.4652    2.1268   21.8700 C   0  0  0  0  0  0
    5.7860    1.3469   20.7219 C   0  0  0  0  0  0
   10.9054    0.4568   23.1656 C   0  0  0  0  0  0
   11.4764   -0.7358   22.7101 C   0  0  0  0  0  0
   12.8094   -0.7701   22.3064 C   0  0  0  0  0  0
   13.5694   -2.3956   21.6731 Br  0  0  0  0  0  0
   13.5693    0.3990   22.3088 C   0  0  0  0  0  0
   13.0110    1.5957   22.7492 C   0  0  0  0  0  0
   11.6896    1.6241   23.1905 C   0  0  0  0  0  0
   11.1401    2.8297   23.6406 N   0  0  0  0  0  0
    9.6412    1.3589   25.5202 H   0  0  0  0  0  0
    8.1605    1.9486   24.7278 H   0  0  0  0  0  0
    9.0102   -0.3411   23.8353 H   0  0  0  0  0  0
    7.5303   -0.7221   22.2843 H   0  0  0  0  0  0
    7.8703   -1.0522   19.4417 H   0  0  0  0  0  0
    4.7700    0.8559   17.5077 H   0  0  0  0  0  0
    3.3102    2.5562   18.6621 H   0  0  0  0  0  0
    2.7925    3.8528   20.6915 H   0  0  0  0  0  0
    4.1597    3.6003   22.7209 H   0  0  0  0  0  0
    6.0515    2.0261   22.7702 H   0  0  0  0  0  0
   10.8809   -1.6355   22.6431 H   0  0  0  0  0  0
   14.5878    0.3903   21.9628 H   0  0  0  0  0  0
   13.6101    2.4945   22.7509 H   0  0  0  0  0  0
   11.6670    3.6781   23.5057 H   0  0  0  0  0  0
  1  2  2  0  0  0
  2 25  1  0  0  0
  2  3  1  0  0  0
  3  4  1  0  0  0
  3 26  1  0  0  0
  3 27  1  0  0  0
  4  5  1  0  0  0
  4 18  1  0  0  0
  4 28  1  0  0  0
  5  6  2  0  0  0
  5  7  1  0  0  0
  7  8  1  0  0  0
  7 29  1  0  0  0
  8 17  2  0  0  0
  8  9  1  0  0  0
  9 10  2  0  0  0
  9 30  1  0  0  0
 10 11  1  0  0  0
 11 12  2  0  0  0
 11 31  1  0  0  0
 12 17  1  0  0  0
 12 13  1  0  0  0
 13 14  2  0  0  0
 13 32  1  0  0  0
 14 15  1  0  0  0
 14 33  1  0  0  0
 15 16  2  0  0  0
 15 34  1  0  0  0
 16 17  1  0  0  0
 16 35  1  0  0  0
 18 24  2  0  0  0
 18 19  1  0  0  0
 19 20  2  0  0  0
 19 36  1  0  0  0
 20 21  1  0  0  0
 20 22  1  0  0  0
 22 23  2  0  0  0
 22 37  1  0  0  0
 23 24  1  0  0  0
 23 38  1  0  0  0
 24 25  1  0  0  0
 25 39  1  0  0  0
M  END
> <r_i_docking_score>
-6.29252869153325

$$$$
ligprep_5.maegz:245
                    3D
 Schrodinger Suite 2020-4.
 43 46  0  0  1  0            999 V2000
   10.3109   -3.0962   24.1864 O   0  0  0  0  0  0
    9.6609   -2.3561   23.4485 C   0  0  0  0  0  0
    8.2095   -2.4266   23.4576 C   0  0  0  0  0  0
    7.5894   -3.0644   22.4232 C   0  0  0  0  0  0
    6.1464   -3.1523   22.2457 C   0  0  0  0  0  0
    5.5737   -3.6533   21.2828 O   0  0  0  0  0  0
    5.4431   -2.5884   23.2482 N   0  0  0  0  0  0
    5.9610   -1.9224   24.3644 C   0  0  0  0  0  0
    5.0976   -1.3686   25.3097 C   0  0  0  0  0  0
    5.6175   -0.6976   26.4172 C   0  0  0  0  0  0
    6.9988   -0.5814   26.5788 C   0  0  0  0  0  0
    7.8646   -1.1328   25.6335 C   0  0  0  0  0  0
    7.3543   -1.8085   24.5147 C   0  0  0  0  0  0
   10.2443   -1.4038   22.6655 N   0  0  0  0  0  0
   11.6875   -1.1707   22.6670 C   0  0  0  0  0  0
   11.8936    0.2520   23.2413 C   0  0  0  0  0  0
   11.0436    1.2847   22.6003 N   0  0  0  0  0  0
   11.3970    2.6242   22.8800 C   0  0  0  0  0  0
   10.5589    3.4264   23.6680 C   0  0  0  0  0  0
   10.8868    4.7592   23.9169 C   0  0  0  0  0  0
   12.0521    5.3021   23.3787 C   0  0  0  0  0  0
   12.8929    4.5113   22.5977 C   0  0  0  0  0  0
   14.3130    5.2123   21.9087 Cl  0  0  0  0  0  0
   12.5776    3.1726   22.3551 C   0  0  0  0  0  0
    9.8917    1.0005   21.9079 C   0  0  0  0  0  0
    9.1773    1.8546   21.3800 O   0  0  0  0  0  0
    9.5266   -0.4956   21.7574 C   0  0  0  0  0  0
    8.1777   -3.5275   21.6425 H   0  0  0  0  0  0
    4.4462   -2.6351   23.1217 H   0  0  0  0  0  0
    4.0272   -1.4532   25.1870 H   0  0  0  0  0  0
    4.9485   -0.2639   27.1477 H   0  0  0  0  0  0
    7.4016   -0.0572   27.4328 H   0  0  0  0  0  0
    8.9309   -1.0338   25.7804 H   0  0  0  0  0  0
   12.2428   -1.9329   23.2177 H   0  0  0  0  0  0
   12.0327   -1.2222   21.6325 H   0  0  0  0  0  0
   11.6485    0.2625   24.3033 H   0  0  0  0  0  0
   12.9423    0.5364   23.1616 H   0  0  0  0  0  0
    9.6407    3.0226   24.0742 H   0  0  0  0  0  0
   10.2321    5.3738   24.5167 H   0  0  0  0  0  0
   12.3002    6.3378   23.5645 H   0  0  0  0  0  0
   13.2319    2.5743   21.7378 H   0  0  0  0  0  0
    9.7316   -0.7962   20.7290 H   0  0  0  0  0  0
    8.4470   -0.5535   21.8725 H   0  0  0  0  0  0
  1  2  2  0  0  0
  2  3  1  0  0  0
  2 14  1  0  0  0
  3 13  1  0  0  0
  3  4  2  0  0  0
  4  5  1  0  0  0
  4 28  1  0  0  0
  5  6  2  0  0  0
  5  7  1  0  0  0
  7  8  1  0  0  0
  7 29  1  0  0  0
  8 13  2  0  0  0
  8  9  1  0  0  0
  9 10  2  0  0  0
  9 30  1  0  0  0
 10 11  1  0  0  0
 10 31  1  0  0  0
 11 12  2  0  0  0
 11 32  1  0  0  0
 12 13  1  0  0  0
 12 33  1  0  0  0
 14 27  1  0  0  0
 14 15  1  0  0  0
 15 16  1  0  0  0
 15 34  1  0  0  0
 15 35  1  0  0  0
 16 17  1  0  0  0
 16 36  1  0  0  0
 16 37  1  0  0  0
 17 18  1  0  0  0
 17 25  1  0  0  0
 18 24  2  0  0  0
 18 19  1  0  0  0
 19 20  2  0  0  0
 19 38  1  0  0  0
 20 21  1  0  0  0
 20 39  1  0  0  0
 21 22  2  0  0  0
 21 40  1  0  0  0
 22 23  1  0  0  0
 22 24  1  0  0  0
 24 41  1  0  0  0
 25 26  2  0  0  0
 25 27  1  0  0  0
 27 42  1  0  0  0
 27 43  1  0  0  0
M  END
> <r_i_docking_score>
-7.36942419730703

$$$$
ligprep_5.maegz:246
                    3D
 Schrodinger Suite 2020-4.
 42 45  0  0  1  0            999 V2000
   10.0044   -3.2551   24.3075 O   0  0  0  0  0  0
    9.3745   -2.4472   23.6271 C   0  0  0  0  0  0
    7.8745   -2.4129   23.7739 C   0  0  0  0  0  0
    7.2742   -1.3120   24.3991 C   0  0  0  0  0  0
    5.9469   -1.1978   24.6229 N   0  0  0  0  0  0
    5.1616   -2.2192   24.2236 C   0  0  0  0  0  0
    5.6234   -3.3972   23.5963 C   0  0  0  0  0  0
    4.7541   -4.4485   23.2134 C   0  0  0  0  0  0
    5.2676   -5.5930   22.6116 C   0  0  0  0  0  0
    6.6294   -5.7089   22.3638 C   0  0  0  0  0  0
    7.5021   -4.6858   22.7215 C   0  0  0  0  0  0
    7.0300   -3.5012   23.3568 C   0  0  0  0  0  0
    9.9736   -1.5440   22.8052 N   0  0  0  0  0  0
   11.4283   -1.4514   22.7054 C   0  0  0  0  0  0
   11.7812   -0.0339   23.2087 C   0  0  0  0  0  0
   10.9950    1.0463   22.5612 N   0  0  0  0  0  0
   11.4836    2.3582   22.7763 C   0  0  0  0  0  0
   12.7567    2.7176   22.3082 C   0  0  0  0  0  0
   13.2421    4.0094   22.5092 C   0  0  0  0  0  0
   12.4715    4.9478   23.1955 C   0  0  0  0  0  0
   11.2121    4.5965   23.6794 C   0  0  0  0  0  0
   10.2734    5.7548   24.5489 Cl  0  0  0  0  0  0
   10.7171    3.3088   23.4705 C   0  0  0  0  0  0
    9.8056    0.8328   21.9077 C   0  0  0  0  0  0
    9.1637    1.7252   21.3459 O   0  0  0  0  0  0
    9.2708   -0.6225   21.8995 C   0  0  0  0  0  0
    7.8712   -0.4821   24.7488 H   0  0  0  0  0  0
    4.1060   -2.0950   24.4128 H   0  0  0  0  0  0
    3.6942   -4.3610   23.4015 H   0  0  0  0  0  0
    4.6070   -6.4034   22.3367 H   0  0  0  0  0  0
    7.0165   -6.6046   21.9014 H   0  0  0  0  0  0
    8.5522   -4.7934   22.5152 H   0  0  0  0  0  0
   11.9431   -2.2278   23.2729 H   0  0  0  0  0  0
   11.7110   -1.5880   21.6583 H   0  0  0  0  0  0
   11.5783    0.0303   24.2800 H   0  0  0  0  0  0
   12.8481    0.1483   23.0883 H   0  0  0  0  0  0
   13.3688    2.0014   21.7770 H   0  0  0  0  0  0
   14.2224    4.2792   22.1468 H   0  0  0  0  0  0
   12.8571    5.9464   23.3526 H   0  0  0  0  0  0
    9.7372    3.0490   23.8464 H   0  0  0  0  0  0
    9.3632   -0.9966   20.8780 H   0  0  0  0  0  0
    8.1986   -0.5743   22.0970 H   0  0  0  0  0  0
  1  2  2  0  0  0
  2  3  1  0  0  0
  2 13  1  0  0  0
  3 12  2  0  0  0
  3  4  1  0  0  0
  4  5  2  0  0  0
  4 27  1  0  0  0
  5  6  1  0  0  0
  6  7  2  0  0  0
  6 28  1  0  0  0
  7 12  1  0  0  0
  7  8  1  0  0  0
  8  9  2  0  0  0
  8 29  1  0  0  0
  9 10  1  0  0  0
  9 30  1  0  0  0
 10 11  2  0  0  0
 10 31  1  0  0  0
 11 12  1  0  0  0
 11 32  1  0  0  0
 13 26  1  0  0  0
 13 14  1  0  0  0
 14 15  1  0  0  0
 14 33  1  0  0  0
 14 34  1  0  0  0
 15 16  1  0  0  0
 15 35  1  0  0  0
 15 36  1  0  0  0
 16 17  1  0  0  0
 16 24  1  0  0  0
 17 23  2  0  0  0
 17 18  1  0  0  0
 18 19  2  0  0  0
 18 37  1  0  0  0
 19 20  1  0  0  0
 19 38  1  0  0  0
 20 21  2  0  0  0
 20 39  1  0  0  0
 21 22  1  0  0  0
 21 23  1  0  0  0
 23 40  1  0  0  0
 24 25  2  0  0  0
 24 26  1  0  0  0
 26 41  1  0  0  0
 26 42  1  0  0  0
M  END
> <r_i_docking_score>
-6.90104229072139

$$$$
ligprep_5.maegz:247
                    3D
 Schrodinger Suite 2020-4.
 43 46  0  0  1  0            999 V2000
    9.5556    0.3927   25.5081 C   0  0  0  0  0  0
    9.0035    0.1765   24.2143 O   0  0  0  0  0  0
    9.8358   -0.3347   23.1550 C   0  0  2  0  0  0
    8.9425   -0.3433   21.8687 C   0  0  0  0  0  0
    9.0463   -1.2530   21.0486 O   0  0  0  0  0  0
    8.0359    0.6525   21.7470 N   0  0  0  0  0  0
    7.0681    0.8644   20.7403 C   0  0  0  0  0  0
    7.1483    0.2958   19.4564 C   0  0  0  0  0  0
    6.2271    0.4799   18.4847 N   0  0  0  0  0  0
    5.1727    1.2695   18.7639 C   0  0  0  0  0  0
    4.9651    1.9169   19.9976 C   0  0  0  0  0  0
    3.8449    2.7456   20.2388 C   0  0  0  0  0  0
    3.6882    3.3663   21.4744 C   0  0  0  0  0  0
    4.6256    3.1761   22.4841 C   0  0  0  0  0  0
    5.7384    2.3652   22.2756 C   0  0  0  0  0  0
    5.9425    1.7153   21.0219 C   0  0  0  0  0  0
   10.3274   -1.7852   23.4652 C   0  0  0  0  0  0
   11.5015   -2.2239   22.5616 C   0  0  0  0  0  0
   12.6014   -1.3329   22.6921 O   0  0  0  0  0  0
   12.3151    0.0136   22.6012 C   0  0  0  0  0  0
   13.4173    0.8126   22.3086 C   0  0  0  0  0  0
   13.2972    2.1965   22.3092 C   0  0  0  0  0  0
   12.0762    2.7840   22.6198 C   0  0  0  0  0  0
   11.9643    4.5059   22.7093 Cl  0  0  0  0  0  0
   10.9604    1.9814   22.8663 C   0  0  0  0  0  0
   11.0486    0.5784   22.8704 C   0  0  0  0  0  0
    8.7820    0.8338   26.1393 H   0  0  0  0  0  0
    9.8661   -0.5327   25.9937 H   0  0  0  0  0  0
   10.3969    1.0878   25.5016 H   0  0  0  0  0  0
    7.9773    1.2694   22.5435 H   0  0  0  0  0  0
    7.9700   -0.3343   19.1545 H   0  0  0  0  0  0
    4.4567    1.3991   17.9656 H   0  0  0  0  0  0
    3.1238    2.9099   19.4504 H   0  0  0  0  0  0
    2.8411    4.0136   21.6457 H   0  0  0  0  0  0
    4.4913    3.6692   23.4353 H   0  0  0  0  0  0
    6.4448    2.2305   23.0785 H   0  0  0  0  0  0
    9.5104   -2.5042   23.4000 H   0  0  0  0  0  0
   10.6867   -1.8561   24.4887 H   0  0  0  0  0  0
   11.2108   -2.3017   21.5119 H   0  0  0  0  0  0
   11.8404   -3.2131   22.8631 H   0  0  0  0  0  0
   14.3700    0.3521   22.1010 H   0  0  0  0  0  0
   14.1614    2.8108   22.1031 H   0  0  0  0  0  0
   10.0170    2.4573   23.0842 H   0  0  0  0  0  0
  1  2  1  0  0  0
  1 27  1  0  0  0
  1 28  1  0  0  0
  1 29  1  0  0  0
  2  3  1  0  0  0
  3 26  1  0  0  0
  3  4  1  0  0  0
  3 17  1  0  0  0
  4  5  2  0  0  0
  4  6  1  0  0  0
  6  7  1  0  0  0
  6 30  1  0  0  0
  7 16  2  0  0  0
  7  8  1  0  0  0
  8  9  2  0  0  0
  8 31  1  0  0  0
  9 10  1  0  0  0
 10 11  2  0  0  0
 10 32  1  0  0  0
 11 16  1  0  0  0
 11 12  1  0  0  0
 12 13  2  0  0  0
 12 33  1  0  0  0
 13 14  1  0  0  0
 13 34  1  0  0  0
 14 15  2  0  0  0
 14 35  1  0  0  0
 15 16  1  0  0  0
 15 36  1  0  0  0
 17 18  1  0  0  0
 17 37  1  0  0  0
 17 38  1  0  0  0
 18 19  1  0  0  0
 18 39  1  0  0  0
 18 40  1  0  0  0
 19 20  1  0  0  0
 20 26  2  0  0  0
 20 21  1  0  0  0
 21 22  2  0  0  0
 21 41  1  0  0  0
 22 23  1  0  0  0
 22 42  1  0  0  0
 23 24  1  0  0  0
 23 25  2  0  0  0
 25 26  1  0  0  0
 25 43  1  0  0  0
M  END
> <r_i_docking_score>
-5.67185013994704

$$$$
ligprep_5.maegz:248
                    3D
 Schrodinger Suite 2020-4.
 36 39  0  0  1  0            999 V2000
    5.9696   -6.0527   21.5478 N   0  0  0  0  0  0
    6.4402   -5.0732   22.3693 C   0  0  0  0  0  0
    7.1365   -4.0632   21.9407 N   0  0  0  0  0  0
    7.4983   -3.2829   22.9953 N   0  0  0  0  0  0
    8.2666   -2.0972   22.7359 C   0  0  0  0  0  0
    8.3489   -1.6346   21.5933 O   0  0  0  0  0  0
    9.0336   -1.4226   23.9063 C   0  0  2  0  0  0
    8.1670   -0.2740   24.4815 C   0  0  0  0  0  0
    9.0167    0.5830   25.4322 C   0  0  0  0  0  0
   10.0748    1.2130   24.7046 O   0  0  0  0  0  0
   10.8428    0.3792   23.9126 C   0  0  0  0  0  0
   12.0783    0.9011   23.5275 C   0  0  0  0  0  0
   12.9228    0.1574   22.7080 C   0  0  0  0  0  0
   12.5358   -1.1159   22.3000 C   0  0  0  0  0  0
   13.5695   -2.0529   21.2960 Cl  0  0  0  0  0  0
   11.2992   -1.6322   22.6763 C   0  0  0  0  0  0
   10.4011   -0.8793   23.4468 C   0  0  0  0  0  0
    6.9750   -3.8399   24.1726 C   0  0  0  0  0  0
    7.0196   -3.4790   25.5342 C   0  0  0  0  0  0
    6.3218   -4.3026   26.4211 C   0  0  0  0  0  0
    5.6105   -5.3953   26.0584 N   0  0  0  0  0  0
    5.5694   -5.7327   24.7497 C   0  0  0  0  0  0
    6.2468   -4.9943   23.7701 C   0  0  0  0  0  0
    5.5752   -6.9167   21.9066 H   0  0  0  0  0  0
    6.1742   -6.0315   20.5617 H   0  0  0  0  0  0
    9.2370   -2.2021   24.6384 H   0  0  0  0  0  0
    7.8115    0.3800   23.6811 H   0  0  0  0  0  0
    7.2779   -0.6426   24.9922 H   0  0  0  0  0  0
    8.4076    1.3545   25.9044 H   0  0  0  0  0  0
    9.4307   -0.0415   26.2284 H   0  0  0  0  0  0
   12.3793    1.8828   23.8638 H   0  0  0  0  0  0
   13.8768    0.5604   22.4040 H   0  0  0  0  0  0
   11.0245   -2.6194   22.3348 H   0  0  0  0  0  0
    7.5486   -2.6229   25.9154 H   0  0  0  0  0  0
    6.3194   -4.0829   27.4791 H   0  0  0  0  0  0
    5.0008   -6.6137   24.4923 H   0  0  0  0  0  0
  1  2  1  0  0  0
  1 24  1  0  0  0
  1 25  1  0  0  0
  2 23  1  0  0  0
  2  3  2  0  0  0
  3  4  1  0  0  0
  4  5  1  0  0  0
  4 18  1  0  0  0
  5  6  2  0  0  0
  5  7  1  0  0  0
  7 17  1  0  0  0
  7  8  1  0  0  0
  7 26  1  0  0  0
  8  9  1  0  0  0
  8 27  1  0  0  0
  8 28  1  0  0  0
  9 10  1  0  0  0
  9 29  1  0  0  0
  9 30  1  0  0  0
 10 11  1  0  0  0
 11 17  2  0  0  0
 11 12  1  0  0  0
 12 13  2  0  0  0
 12 31  1  0  0  0
 13 14  1  0  0  0
 13 32  1  0  0  0
 14 15  1  0  0  0
 14 16  2  0  0  0
 16 17  1  0  0  0
 16 33  1  0  0  0
 18 23  2  0  0  0
 18 19  1  0  0  0
 19 20  2  0  0  0
 19 34  1  0  0  0
 20 21  1  0  0  0
 20 35  1  0  0  0
 21 22  2  0  0  0
 22 23  1  0  0  0
 22 36  1  0  0  0
M  END
> <r_i_docking_score>
-5.94410282877189

$$$$
ligprep_5.maegz:249
                    3D
 Schrodinger Suite 2020-4.
 71 74  0  0  1  0            999 V2000
    3.0180   -5.0480   25.0184 C   0  0  0  0  0  0
    3.9268   -5.6856   23.9322 C   0  0  0  0  0  0
    4.6526   -6.8729   24.6188 C   0  0  0  0  0  0
    3.0180   -6.2387   22.8170 C   0  0  0  0  0  0
    4.9493   -4.6747   23.3402 C   0  0  0  0  0  0
    6.1139   -5.1250   22.6985 C   0  0  0  0  0  0
    7.1118   -4.2292   22.3154 C   0  0  0  0  0  0
    6.9465   -2.8580   22.5441 C   0  0  0  0  0  0
    8.0566   -1.9762   22.4387 N   0  0  0  0  0  0
    7.9969   -0.9548   21.5112 C   0  0  0  0  0  0
    8.7965   -0.0179   21.4895 O   0  0  0  0  0  0
    6.8970   -0.9421   20.4046 C   0  0  1  0  0  0
    5.7439    0.0398   20.7039 C   0  0  0  0  0  0
    5.9427    1.1700   19.7140 C   0  0  0  0  0  0
    6.5931    0.4675   18.5370 C   0  0  0  0  0  0
    7.4700   -0.4513   19.1789 O   0  0  0  0  0  0
    9.2496   -2.2886   23.3371 C   0  0  1  0  0  0
   10.4231   -1.2864   23.5595 C   0  0  0  0  0  0
   10.6469   -0.8525   24.6892 O   0  0  0  0  0  0
   11.2026   -1.0194   22.4963 N   0  0  0  0  0  0
   12.5549   -0.4597   22.5135 C   0  0  0  0  0  0
   12.8952    0.6914   23.4871 C   0  0  0  0  0  0
   12.2335    2.0406   23.2516 C   0  0  0  0  0  0
   12.8855    3.0145   22.4869 C   0  0  0  0  0  0
   12.3723    4.3096   22.4123 C   0  0  0  0  0  0
   11.2004    4.6350   23.0971 C   0  0  0  0  0  0
   10.5260    3.6597   23.8284 C   0  0  0  0  0  0
    9.3889    3.9754   24.4883 F   0  0  0  0  0  0
   11.0402    2.3669   23.9045 C   0  0  0  0  0  0
    8.8620   -2.9711   24.6549 C   0  0  0  0  0  0
    9.5674   -4.0952   25.1080 C   0  0  0  0  0  0
    9.1716   -4.7608   26.2686 C   0  0  0  0  0  0
    8.0855   -4.2554   26.9786 C   0  0  0  0  0  0
    7.4253   -3.1283   26.6099 N   0  0  0  0  0  0
    7.8265   -2.4999   25.4752 C   0  0  0  0  0  0
    5.7363   -2.3898   23.0622 C   0  0  0  0  0  0
    4.7586   -3.2905   23.4635 C   0  0  0  0  0  0
    2.3772   -5.7919   25.4944 H   0  0  0  0  0  0
    2.3474   -4.2946   24.6054 H   0  0  0  0  0  0
    3.6049   -4.5776   25.8094 H   0  0  0  0  0  0
    5.1702   -7.5102   23.9032 H   0  0  0  0  0  0
    5.3852   -6.5245   25.3502 H   0  0  0  0  0  0
    3.9556   -7.5237   25.1487 H   0  0  0  0  0  0
    3.5926   -6.7888   22.0745 H   0  0  0  0  0  0
    2.2730   -6.9304   23.2126 H   0  0  0  0  0  0
    2.4785   -5.4409   22.3079 H   0  0  0  0  0  0
    6.2880   -6.1803   22.5506 H   0  0  0  0  0  0
    8.0378   -4.6107   21.9102 H   0  0  0  0  0  0
    6.5416   -1.9486   20.1856 H   0  0  0  0  0  0
    4.7855   -0.4432   20.5045 H   0  0  0  0  0  0
    5.7337    0.4342   21.7215 H   0  0  0  0  0  0
    5.0136    1.6723   19.4406 H   0  0  0  0  0  0
    6.6214    1.9214   20.1220 H   0  0  0  0  0  0
    5.8828   -0.0714   17.9059 H   0  0  0  0  0  0
    7.1426    1.1460   17.8853 H   0  0  0  0  0  0
    9.7511   -3.0605   22.7513 H   0  0  0  0  0  0
   10.8846   -1.3573   21.5971 H   0  0  0  0  0  0
   13.3004   -1.2536   22.5841 H   0  0  0  0  0  0
   12.6806   -0.0628   21.5097 H   0  0  0  0  0  0
   12.7294    0.3880   24.5185 H   0  0  0  0  0  0
   13.9703    0.8369   23.4530 H   0  0  0  0  0  0
   13.8127    2.7810   21.9834 H   0  0  0  0  0  0
   12.8844    5.0614   21.8311 H   0  0  0  0  0  0
   10.7990    5.6357   23.0384 H   0  0  0  0  0  0
   10.5258    1.6380   24.5116 H   0  0  0  0  0  0
   10.4338   -4.4515   24.5763 H   0  0  0  0  0  0
    9.6980   -5.6414   26.6117 H   0  0  0  0  0  0
    7.7462   -4.7422   27.8816 H   0  0  0  0  0  0
    7.2828   -1.6040   25.2151 H   0  0  0  0  0  0
    5.5856   -1.3373   23.2553 H   0  0  0  0  0  0
    3.8749   -2.8819   23.9258 H   0  0  0  0  0  0
  1  2  1  0  0  0
  1 38  1  0  0  0
  1 39  1  0  0  0
  1 40  1  0  0  0
  2  3  1  0  0  0
  2  4  1  0  0  0
  2  5  1  0  0  0
  3 41  1  0  0  0
  3 42  1  0  0  0
  3 43  1  0  0  0
  4 44  1  0  0  0
  4 45  1  0  0  0
  4 46  1  0  0  0
  5 37  2  0  0  0
  5  6  1  0  0  0
  6  7  2  0  0  0
  6 47  1  0  0  0
  7  8  1  0  0  0
  7 48  1  0  0  0
  8  9  1  0  0  0
  8 36  2  0  0  0
  9 10  1  0  0  0
  9 17  1  0  0  0
 10 11  2  0  0  0
 10 12  1  0  0  0
 12 16  1  0  0  0
 12 13  1  0  0  0
 12 49  1  0  0  0
 13 14  1  0  0  0
 13 50  1  0  0  0
 13 51  1  0  0  0
 14 15  1  0  0  0
 14 52  1  0  0  0
 14 53  1  0  0  0
 15 16  1  0  0  0
 15 54  1  0  0  0
 15 55  1  0  0  0
 17 18  1  0  0  0
 17 30  1  0  0  0
 17 56  1  0  0  0
 18 19  2  0  0  0
 18 20  1  0  0  0
 20 21  1  0  0  0
 20 57  1  0  0  0
 21 22  1  0  0  0
 21 58  1  0  0  0
 21 59  1  0  0  0
 22 23  1  0  0  0
 22 60  1  0  0  0
 22 61  1  0  0  0
 23 29  2  0  0  0
 23 24  1  0  0  0
 24 25  2  0  0  0
 24 62  1  0  0  0
 25 26  1  0  0  0
 25 63  1  0  0  0
 26 27  2  0  0  0
 26 64  1  0  0  0
 27 28  1  0  0  0
 27 29  1  0  0  0
 29 65  1  0  0  0
 30 35  2  0  0  0
 30 31  1  0  0  0
 31 32  2  0  0  0
 31 66  1  0  0  0
 32 33  1  0  0  0
 32 67  1  0  0  0
 33 34  2  0  0  0
 33 68  1  0  0  0
 34 35  1  0  0  0
 35 69  1  0  0  0
 36 37  1  0  0  0
 36 70  1  0  0  0
 37 71  1  0  0  0
M  END
> <r_i_docking_score>
-6.88967490529124

$$$$
ligprep_5.maegz:250
                    3D
 Schrodinger Suite 2020-4.
 70 73  0  0  1  0            999 V2000
    4.4829    2.7446   20.3669 C   0  0  0  0  0  0
    5.4227    1.6321   19.9345 C   0  0  0  0  0  0
    5.1702    1.0132   18.7087 C   0  0  0  0  0  0
    5.9740   -0.0449   18.3083 C   0  0  0  0  0  0
    7.0097   -0.4977   19.0438 N   0  0  0  0  0  0
    7.2697    0.1244   20.2129 C   0  0  0  0  0  0
    6.5313    1.2162   20.7039 C   0  0  0  0  0  0
    6.9768    1.9637   21.9589 C   0  0  2  0  0  0
    8.5072    2.2168   22.0683 C   0  0  0  0  0  0
    9.2599    1.9458   21.1305 O   0  0  0  0  0  0
    8.9493    2.7254   23.2276 N   0  0  0  0  0  0
   10.3465    3.0279   23.5217 C   0  0  0  0  0  0
   11.0646    1.9015   24.2891 C   0  0  0  0  0  0
   11.4712    0.6827   23.4735 C   0  0  0  0  0  0
   12.7802    0.5578   22.9977 C   0  0  0  0  0  0
   13.1695   -0.5896   22.3078 C   0  0  0  0  0  0
   12.2474   -1.6082   22.0666 C   0  0  0  0  0  0
   10.9371   -1.4787   22.5200 C   0  0  0  0  0  0
   10.0325   -2.4505   22.2753 F   0  0  0  0  0  0
   10.5564   -0.3437   23.2287 C   0  0  0  0  0  0
    6.3241    1.4478   23.2103 N   0  0  0  0  0  0
    5.3218    2.1180   23.8775 C   0  0  0  0  0  0
    4.6297    1.6004   24.7614 O   0  0  0  0  0  0
    5.0420    3.5015   23.5541 C   0  0  0  0  0  0
    5.8539    4.6152   23.3280 C   0  0  0  0  0  0
    5.0100    5.7095   23.1374 C   0  0  0  0  0  0
    3.7238    5.2431   23.3358 C   0  0  0  0  0  0
    3.7472    3.9165   23.6254 O   0  0  0  0  0  0
    6.7030    0.1803   23.7320 C   0  0  0  0  0  0
    7.3641    0.0995   24.9646 C   0  0  0  0  0  0
    7.7019   -1.1393   25.5020 C   0  0  0  0  0  0
    7.3837   -2.3275   24.8265 C   0  0  0  0  0  0
    7.7497   -3.7230   25.3988 C   0  0  0  0  0  0
    6.5656   -4.7175   25.2556 C   0  0  0  0  0  0
    8.1108   -3.6878   26.9046 C   0  0  0  0  0  0
    8.9688   -4.2807   24.6403 C   0  0  0  0  0  0
    6.7262   -2.2328   23.5910 C   0  0  0  0  0  0
    6.3703   -0.9968   23.0603 C   0  0  0  0  0  0
    3.8486    3.0823   19.5436 H   0  0  0  0  0  0
    3.8441    2.4063   21.1826 H   0  0  0  0  0  0
    5.0300    3.6209   20.7069 H   0  0  0  0  0  0
    4.3629    1.3374   18.0744 H   0  0  0  0  0  0
    5.8128   -0.5345   17.3589 H   0  0  0  0  0  0
    8.1225   -0.2634   20.7497 H   0  0  0  0  0  0
    6.6649    2.9805   21.7679 H   0  0  0  0  0  0
    8.2799    2.9213   23.9544 H   0  0  0  0  0  0
   10.8920    3.2219   22.5949 H   0  0  0  0  0  0
   10.4241    3.9689   24.0669 H   0  0  0  0  0  0
   11.9691    2.3212   24.7078 H   0  0  0  0  0  0
   10.4721    1.5890   25.1503 H   0  0  0  0  0  0
   13.5024    1.3423   23.1729 H   0  0  0  0  0  0
   14.1821   -0.6866   21.9470 H   0  0  0  0  0  0
   12.5331   -2.4898   21.5153 H   0  0  0  0  0  0
    9.5414   -0.2584   23.5770 H   0  0  0  0  0  0
    6.9308    4.6393   23.2783 H   0  0  0  0  0  0
    5.3029    6.7205   22.8986 H   0  0  0  0  0  0
    2.7499    5.7102   23.3089 H   0  0  0  0  0  0
    7.6184    0.9967   25.5096 H   0  0  0  0  0  0
    8.2130   -1.1470   26.4499 H   0  0  0  0  0  0
    6.7831   -5.6682   25.7434 H   0  0  0  0  0  0
    6.3422   -4.9532   24.2148 H   0  0  0  0  0  0
    5.6545   -4.3229   25.7065 H   0  0  0  0  0  0
    9.0015   -3.0908   27.1036 H   0  0  0  0  0  0
    7.2835   -3.2875   27.4884 H   0  0  0  0  0  0
    8.3183   -4.6883   27.2903 H   0  0  0  0  0  0
    9.8365   -3.6252   24.7354 H   0  0  0  0  0  0
    9.2563   -5.2651   25.0141 H   0  0  0  0  0  0
    8.7576   -4.3884   23.5760 H   0  0  0  0  0  0
    6.4781   -3.1194   23.0296 H   0  0  0  0  0  0
    5.8124   -0.9606   22.1369 H   0  0  0  0  0  0
  1  2  1  0  0  0
  1 39  1  0  0  0
  1 40  1  0  0  0
  1 41  1  0  0  0
  2  7  2  0  0  0
  2  3  1  0  0  0
  3  4  2  0  0  0
  3 42  1  0  0  0
  4  5  1  0  0  0
  4 43  1  0  0  0
  5  6  2  0  0  0
  6  7  1  0  0  0
  6 44  1  0  0  0
  7  8  1  0  0  0
  8  9  1  0  0  0
  8 21  1  0  0  0
  8 45  1  0  0  0
  9 10  2  0  0  0
  9 11  1  0  0  0
 11 12  1  0  0  0
 11 46  1  0  0  0
 12 13  1  0  0  0
 12 47  1  0  0  0
 12 48  1  0  0  0
 13 14  1  0  0  0
 13 49  1  0  0  0
 13 50  1  0  0  0
 14 20  2  0  0  0
 14 15  1  0  0  0
 15 16  2  0  0  0
 15 51  1  0  0  0
 16 17  1  0  0  0
 16 52  1  0  0  0
 17 18  2  0  0  0
 17 53  1  0  0  0
 18 19  1  0  0  0
 18 20  1  0  0  0
 20 54  1  0  0  0
 21 22  1  0  0  0
 21 29  1  0  0  0
 22 23  2  0  0  0
 22 24  1  0  0  0
 24 28  1  0  0  0
 24 25  2  0  0  0
 25 26  1  0  0  0
 25 55  1  0  0  0
 26 27  2  0  0  0
 26 56  1  0  0  0
 27 28  1  0  0  0
 27 57  1  0  0  0
 29 38  2  0  0  0
 29 30  1  0  0  0
 30 31  2  0  0  0
 30 58  1  0  0  0
 31 32  1  0  0  0
 31 59  1  0  0  0
 32 33  1  0  0  0
 32 37  2  0  0  0
 33 34  1  0  0  0
 33 35  1  0  0  0
 33 36  1  0  0  0
 34 60  1  0  0  0
 34 61  1  0  0  0
 34 62  1  0  0  0
 35 63  1  0  0  0
 35 64  1  0  0  0
 35 65  1  0  0  0
 36 66  1  0  0  0
 36 67  1  0  0  0
 36 68  1  0  0  0
 37 38  1  0  0  0
 37 69  1  0  0  0
 38 70  1  0  0  0
M  END
> <r_i_docking_score>
-4.90801457928014

$$$$
ligprep_5.maegz:251
                    3D
 Schrodinger Suite 2020-4.
 73 77  0  0  1  0            999 V2000
    4.4316    1.0766   25.9712 C   0  0  0  0  0  0
    5.1320    0.0545   26.9020 C   0  0  0  0  0  0
    6.5428    0.6197   27.2209 C   0  0  0  0  0  0
    4.3544   -0.0433   28.2368 C   0  0  0  0  0  0
    5.1673   -1.3364   26.2198 C   0  0  0  0  0  0
    3.9667   -1.9341   25.8075 C   0  0  0  0  0  0
    3.9616   -3.1673   25.1627 C   0  0  0  0  0  0
    5.1663   -3.8276   24.9138 C   0  0  0  0  0  0
    5.1753   -5.0920   24.2523 N   0  0  0  0  0  0
    5.8309   -5.2622   23.0510 C   0  0  0  0  0  0
    5.9767   -6.3533   22.4963 O   0  0  0  0  0  0
    6.3433   -4.0767   22.3939 C   0  0  0  0  0  0
    7.6832   -3.6753   22.4228 C   0  0  0  0  0  0
    7.7109   -2.4080   21.9079 N   0  0  0  0  0  0
    8.7299   -1.5066   21.7528 C   0  0  0  0  0  0
    8.4470   -0.2554   21.2098 C   0  0  0  0  0  0
    7.1486    0.0551   20.8091 C   0  0  0  0  0  0
    6.1097   -0.8685   20.9548 C   0  0  0  0  0  0
    6.3877   -2.1250   21.5267 C   0  0  0  0  0  0
    5.5703   -3.1722   21.8132 N   0  0  0  0  0  0
    4.4685   -6.2733   24.8598 C   0  0  1  0  0  0
    4.4047   -6.2471   26.4163 C   0  0  0  0  0  0
    3.3188   -6.3177   26.9947 O   0  0  0  0  0  0
    5.5664   -6.0775   27.0719 N   0  0  0  0  0  0
    5.6485   -5.8916   28.5189 C   0  0  0  0  0  0
    5.3413   -7.1627   29.3342 C   0  0  0  0  0  0
    4.9461   -6.8527   30.7695 C   0  0  0  0  0  0
    5.9262   -6.7233   31.7547 C   0  0  0  0  0  0
    5.5701   -6.4282   33.0706 C   0  0  0  0  0  0
    4.2255   -6.2708   33.4081 C   0  0  0  0  0  0
    3.2401   -6.4043   32.4294 C   0  0  0  0  0  0
    1.9369   -6.2518   32.7558 F   0  0  0  0  0  0
    3.5992   -6.6927   31.1127 C   0  0  0  0  0  0
    3.1347   -6.6088   24.1858 C   0  0  0  0  0  0
    2.4727   -7.8063   24.5071 C   0  0  0  0  0  0
    1.2509   -8.1223   23.9120 C   0  0  0  0  0  0
    0.7111   -7.2269   22.9909 C   0  0  0  0  0  0
    1.3249   -6.0686   22.6491 N   0  0  0  0  0  0
    2.5173   -5.7847   23.2302 C   0  0  0  0  0  0
    6.3667   -3.2644   25.3652 C   0  0  0  0  0  0
    6.3675   -2.0288   26.0012 C   0  0  0  0  0  0
    3.3899    0.8175   25.7809 H   0  0  0  0  0  0
    4.4302    2.0779   26.4036 H   0  0  0  0  0  0
    4.9309    1.1415   25.0025 H   0  0  0  0  0  0
    7.0917   -0.0207   27.9117 H   0  0  0  0  0  0
    7.1470    0.7329   26.3195 H   0  0  0  0  0  0
    6.4852    1.6041   27.6869 H   0  0  0  0  0  0
    4.8210   -0.7578   28.9173 H   0  0  0  0  0  0
    4.3164    0.9180   28.7517 H   0  0  0  0  0  0
    3.3219   -0.3627   28.0884 H   0  0  0  0  0  0
    3.0225   -1.4397   25.9783 H   0  0  0  0  0  0
    3.0196   -3.5990   24.8605 H   0  0  0  0  0  0
    8.5655   -4.1595   22.8137 H   0  0  0  0  0  0
    9.7149   -1.8161   22.0711 H   0  0  0  0  0  0
    9.2358    0.4757   21.1074 H   0  0  0  0  0  0
    6.9391    1.0284   20.3869 H   0  0  0  0  0  0
    5.1043   -0.6068   20.6586 H   0  0  0  0  0  0
    5.1120   -7.1348   24.6723 H   0  0  0  0  0  0
    6.4292   -6.0349   26.5498 H   0  0  0  0  0  0
    6.5963   -5.4493   28.8290 H   0  0  0  0  0  0
    4.9156   -5.1226   28.7804 H   0  0  0  0  0  0
    4.5266   -7.7301   28.8809 H   0  0  0  0  0  0
    6.1943   -7.8427   29.2997 H   0  0  0  0  0  0
    6.9646   -6.8455   31.4937 H   0  0  0  0  0  0
    6.3384   -6.3015   33.8225 H   0  0  0  0  0  0
    3.9467   -6.0365   34.4245 H   0  0  0  0  0  0
    2.8292   -6.7870   30.3600 H   0  0  0  0  0  0
    2.8912   -8.4860   25.2364 H   0  0  0  0  0  0
    0.7351   -9.0358   24.1679 H   0  0  0  0  0  0
   -0.2356   -7.4268   22.5115 H   0  0  0  0  0  0
    2.9652   -4.8579   22.9069 H   0  0  0  0  0  0
    7.3047   -3.7789   25.2136 H   0  0  0  0  0  0
    7.3191   -1.6263   26.3106 H   0  0  0  0  0  0
  1  2  1  0  0  0
  1 42  1  0  0  0
  1 43  1  0  0  0
  1 44  1  0  0  0
  2  3  1  0  0  0
  2  4  1  0  0  0
  2  5  1  0  0  0
  3 45  1  0  0  0
  3 46  1  0  0  0
  3 47  1  0  0  0
  4 48  1  0  0  0
  4 49  1  0  0  0
  4 50  1  0  0  0
  5 41  2  0  0  0
  5  6  1  0  0  0
  6  7  2  0  0  0
  6 51  1  0  0  0
  7  8  1  0  0  0
  7 52  1  0  0  0
  8  9  1  0  0  0
  8 40  2  0  0  0
  9 10  1  0  0  0
  9 21  1  0  0  0
 10 11  2  0  0  0
 10 12  1  0  0  0
 12 20  1  0  0  0
 12 13  2  0  0  0
 13 14  1  0  0  0
 13 53  1  0  0  0
 14 19  1  0  0  0
 14 15  1  0  0  0
 15 16  2  0  0  0
 15 54  1  0  0  0
 16 17  1  0  0  0
 16 55  1  0  0  0
 17 18  2  0  0  0
 17 56  1  0  0  0
 18 19  1  0  0  0
 18 57  1  0  0  0
 19 20  2  0  0  0
 21 22  1  0  0  0
 21 34  1  0  0  0
 21 58  1  0  0  0
 22 23  2  0  0  0
 22 24  1  0  0  0
 24 25  1  0  0  0
 24 59  1  0  0  0
 25 26  1  0  0  0
 25 60  1  0  0  0
 25 61  1  0  0  0
 26 27  1  0  0  0
 26 62  1  0  0  0
 26 63  1  0  0  0
 27 33  2  0  0  0
 27 28  1  0  0  0
 28 29  2  0  0  0
 28 64  1  0  0  0
 29 30  1  0  0  0
 29 65  1  0  0  0
 30 31  2  0  0  0
 30 66  1  0  0  0
 31 32  1  0  0  0
 31 33  1  0  0  0
 33 67  1  0  0  0
 34 39  2  0  0  0
 34 35  1  0  0  0
 35 36  2  0  0  0
 35 68  1  0  0  0
 36 37  1  0  0  0
 36 69  1  0  0  0
 37 38  2  0  0  0
 37 70  1  0  0  0
 38 39  1  0  0  0
 39 71  1  0  0  0
 40 41  1  0  0  0
 40 72  1  0  0  0
 41 73  1  0  0  0
M  END
> <r_i_docking_score>
-3.53944282490722

$$$$
ligprep_5.maegz:252
                    3D
 Schrodinger Suite 2020-4.
 67 70  0  0  1  0            999 V2000
    7.7439    4.3283   26.1178 C   0  0  0  0  0  0
    6.5674    3.3279   25.9691 C   0  0  0  0  0  0
    6.3827    2.6559   27.3570 C   0  0  0  0  0  0
    5.2794    4.1183   25.6420 C   0  0  0  0  0  0
    6.8360    2.3077   24.8281 C   0  0  0  0  0  0
    6.6260    0.9320   25.0055 C   0  0  0  0  0  0
    6.7843    0.0428   23.9471 C   0  0  0  0  0  0
    7.1422    0.4968   22.6688 C   0  0  0  0  0  0
    7.2551   -0.4271   21.5748 N   0  0  0  0  0  0
    6.7953   -0.1620   20.2943 C   0  0  0  0  0  0
    7.1191   -0.8518   19.3261 O   0  0  0  0  0  0
    5.8665    0.9276   20.0182 C   0  0  0  0  0  0
    5.1091    1.6095   20.8531 N   0  0  0  0  0  0
    4.4322    2.4844   20.1320 C   0  0  0  0  0  0
    4.6998    2.3464   18.7875 C   0  0  0  0  0  0
    5.5733    1.3001   18.7235 N   0  0  0  0  0  0
    7.9129   -1.7714   21.7771 C   0  0  1  0  0  0
    9.1847   -1.7448   22.6678 C   0  0  0  0  0  0
    9.2397   -2.4175   23.6994 O   0  0  0  0  0  0
   10.1861   -0.9430   22.2689 N   0  0  0  0  0  0
   11.4094   -0.7990   23.0509 C   0  0  0  0  0  0
   11.2680    0.2174   24.2052 C   0  0  0  0  0  0
   11.4580    1.6810   23.8114 C   0  0  0  0  0  0
   10.5090    2.6267   24.2051 C   0  0  0  0  0  0
   10.6738    3.9747   23.8908 C   0  0  0  0  0  0
   11.8027    4.3923   23.1909 C   0  0  0  0  0  0
   12.7644    3.4612   22.8093 C   0  0  0  0  0  0
   13.8867    3.8802   22.1890 F   0  0  0  0  0  0
   12.5918    2.1087   23.1064 C   0  0  0  0  0  0
    6.9217   -2.8892   22.1188 C   0  0  0  0  0  0
    7.3464   -4.2266   22.1318 C   0  0  0  0  0  0
    6.4636   -5.2625   22.4343 C   0  0  0  0  0  0
    5.1445   -4.9337   22.7230 C   0  0  0  0  0  0
    4.6912   -3.6545   22.7086 N   0  0  0  0  0  0
    5.5660   -2.6660   22.3940 C   0  0  0  0  0  0
    7.4558    1.8585   22.5194 C   0  0  0  0  0  0
    7.2612    2.7531   23.5687 C   0  0  0  0  0  0
    7.5796    5.0120   26.9517 H   0  0  0  0  0  0
    7.8740    4.9527   25.2342 H   0  0  0  0  0  0
    8.6856    3.8123   26.3076 H   0  0  0  0  0  0
    5.4985    2.0172   27.3878 H   0  0  0  0  0  0
    7.2463    2.0435   27.6264 H   0  0  0  0  0  0
    6.2521    3.3938   28.1504 H   0  0  0  0  0  0
    4.4189    3.4543   25.5562 H   0  0  0  0  0  0
    5.0481    4.8517   26.4140 H   0  0  0  0  0  0
    5.3656    4.6568   24.6988 H   0  0  0  0  0  0
    6.3113    0.5252   25.9526 H   0  0  0  0  0  0
    6.5973   -1.0014   24.1351 H   0  0  0  0  0  0
    3.7850    3.2221   20.5807 H   0  0  0  0  0  0
    4.3696    2.8847   17.9087 H   0  0  0  0  0  0
    5.9924    0.9112   17.8883 H   0  0  0  0  0  0
    8.3379   -2.0772   20.8220 H   0  0  0  0  0  0
   10.1082   -0.4282   21.4027 H   0  0  0  0  0  0
   11.7612   -1.7602   23.4363 H   0  0  0  0  0  0
   12.2136   -0.5079   22.3757 H   0  0  0  0  0  0
   10.3032    0.0711   24.6954 H   0  0  0  0  0  0
   11.9703   -0.0330   24.9952 H   0  0  0  0  0  0
    9.6455    2.3112   24.7707 H   0  0  0  0  0  0
    9.9325    4.6985   24.1918 H   0  0  0  0  0  0
   11.9408    5.4383   22.9542 H   0  0  0  0  0  0
   13.3675    1.4125   22.8228 H   0  0  0  0  0  0
    8.3694   -4.4698   21.9097 H   0  0  0  0  0  0
    6.7975   -6.2909   22.4479 H   0  0  0  0  0  0
    4.4269   -5.7015   22.9754 H   0  0  0  0  0  0
    5.1455   -1.6704   22.3848 H   0  0  0  0  0  0
    7.7915    2.2453   21.5674 H   0  0  0  0  0  0
    7.4359    3.8020   23.3843 H   0  0  0  0  0  0
  1  2  1  0  0  0
  1 38  1  0  0  0
  1 39  1  0  0  0
  1 40  1  0  0  0
  2  3  1  0  0  0
  2  4  1  0  0  0
  2  5  1  0  0  0
  3 41  1  0  0  0
  3 42  1  0  0  0
  3 43  1  0  0  0
  4 44  1  0  0  0
  4 45  1  0  0  0
  4 46  1  0  0  0
  5 37  2  0  0  0
  5  6  1  0  0  0
  6  7  2  0  0  0
  6 47  1  0  0  0
  7  8  1  0  0  0
  7 48  1  0  0  0
  8  9  1  0  0  0
  8 36  2  0  0  0
  9 10  1  0  0  0
  9 17  1  0  0  0
 10 11  2  0  0  0
 10 12  1  0  0  0
 12 16  1  0  0  0
 12 13  2  0  0  0
 13 14  1  0  0  0
 14 15  2  0  0  0
 14 49  1  0  0  0
 15 16  1  0  0  0
 15 50  1  0  0  0
 16 51  1  0  0  0
 17 18  1  0  0  0
 17 30  1  0  0  0
 17 52  1  0  0  0
 18 19  2  0  0  0
 18 20  1  0  0  0
 20 21  1  0  0  0
 20 53  1  0  0  0
 21 22  1  0  0  0
 21 54  1  0  0  0
 21 55  1  0  0  0
 22 23  1  0  0  0
 22 56  1  0  0  0
 22 57  1  0  0  0
 23 29  2  0  0  0
 23 24  1  0  0  0
 24 25  2  0  0  0
 24 58  1  0  0  0
 25 26  1  0  0  0
 25 59  1  0  0  0
 26 27  2  0  0  0
 26 60  1  0  0  0
 27 28  1  0  0  0
 27 29  1  0  0  0
 29 61  1  0  0  0
 30 35  2  0  0  0
 30 31  1  0  0  0
 31 32  2  0  0  0
 31 62  1  0  0  0
 32 33  1  0  0  0
 32 63  1  0  0  0
 33 34  2  0  0  0
 33 64  1  0  0  0
 34 35  1  0  0  0
 35 65  1  0  0  0
 36 37  1  0  0  0
 36 66  1  0  0  0
 37 67  1  0  0  0
M  END
> <r_i_docking_score>
-5.46439806667059

$$$$
ligprep_5.maegz:253
                    3D
 Schrodinger Suite 2020-4.
 66 69  0  0  1  0            999 V2000
    7.4834    5.9879   21.7684 C   0  0  0  0  0  0
    7.9030    5.0928   22.9570 C   0  0  0  0  0  0
    9.4254    5.2687   23.2103 C   0  0  0  0  0  0
    7.1909    5.6010   24.2408 C   0  0  0  0  0  0
    7.5306    3.6237   22.6245 C   0  0  0  0  0  0
    8.4154    2.8025   21.9079 C   0  0  0  0  0  0
    8.0639    1.5153   21.5302 C   0  0  0  0  0  0
    6.8303    1.0009   21.9244 C   0  0  0  0  0  0
    6.5236   -0.3505   21.6325 N   0  0  0  0  0  0
    5.9692   -0.6168   20.3958 C   0  0  0  0  0  0
    5.9209   -1.7413   19.8977 O   0  0  0  0  0  0
    5.4467    0.4817   19.6010 C   0  0  0  0  0  0
    5.7985    0.7455   18.2860 C   0  0  0  0  0  0
    5.1697    1.8789   17.9098 O   0  0  0  0  0  0
    4.4463    2.2222   19.0023 C   0  0  0  0  0  0
    4.5559    1.3826   19.9985 N   0  0  0  0  0  0
    7.1800   -1.4325   22.4790 C   0  0  1  0  0  0
    7.5322   -1.0783   23.9660 C   0  0  0  0  0  0
    7.2335   -1.8257   24.8986 O   0  0  0  0  0  0
    8.2080    0.0631   24.1461 N   0  0  0  0  0  0
    8.8911    0.5071   25.3404 C   0  0  0  0  0  0
   10.2057   -0.2617   25.5192 C   0  0  0  0  0  0
   11.0925   -0.3903   24.2820 C   0  0  0  0  0  0
   11.1347   -1.5997   23.5729 C   0  0  0  0  0  0
   12.0177   -1.7634   22.5070 C   0  0  0  0  0  0
   12.8662   -0.7181   22.1489 C   0  0  0  0  0  0
   12.7845    0.5087   22.8096 C   0  0  0  0  0  0
   13.5739    1.5346   22.4228 F   0  0  0  0  0  0
   11.9015    0.6733   23.8760 C   0  0  0  0  0  0
    6.5405   -2.8121   22.4143 C   0  0  0  0  0  0
    7.3239   -3.9358   22.1217 C   0  0  0  0  0  0
    6.7501   -5.2069   22.1104 C   0  0  0  0  0  0
    5.3945   -5.3240   22.4145 C   0  0  0  0  0  0
    4.6141   -4.2536   22.7153 N   0  0  0  0  0  0
    5.1879   -3.0235   22.7129 C   0  0  0  0  0  0
    5.9401    1.7877   22.6601 C   0  0  0  0  0  0
    6.2802    3.0973   22.9814 C   0  0  0  0  0  0
    7.7369    7.0359   21.9363 H   0  0  0  0  0  0
    6.4061    5.9389   21.5873 H   0  0  0  0  0  0
    7.9696    5.6841   20.8416 H   0  0  0  0  0  0
    9.7905    4.5650   23.9581 H   0  0  0  0  0  0
   10.0177    5.1302   22.3081 H   0  0  0  0  0  0
    9.6616    6.2710   23.5677 H   0  0  0  0  0  0
    7.3739    4.9386   25.0873 H   0  0  0  0  0  0
    7.5367    6.5947   24.5277 H   0  0  0  0  0  0
    6.1118    5.6886   24.1093 H   0  0  0  0  0  0
    9.3878    3.1470   21.6082 H   0  0  0  0  0  0
    8.7642    0.9033   20.9778 H   0  0  0  0  0  0
    6.4555    0.2821   17.5637 H   0  0  0  0  0  0
    3.8614    3.1288   18.9188 H   0  0  0  0  0  0
    8.1640   -1.5295   22.0154 H   0  0  0  0  0  0
    8.3327    0.6477   23.3326 H   0  0  0  0  0  0
    9.1058    1.5603   25.1573 H   0  0  0  0  0  0
    8.2388    0.4174   26.2105 H   0  0  0  0  0  0
   10.7694    0.1769   26.3298 H   0  0  0  0  0  0
    9.9481   -1.2527   25.8733 H   0  0  0  0  0  0
   10.5019   -2.4258   23.8645 H   0  0  0  0  0  0
   12.0547   -2.7036   21.9748 H   0  0  0  0  0  0
   13.5672   -0.8486   21.3381 H   0  0  0  0  0  0
   11.8690    1.6194   24.3967 H   0  0  0  0  0  0
    8.3759   -3.8260   21.9054 H   0  0  0  0  0  0
    7.3470   -6.0774   21.8816 H   0  0  0  0  0  0
    4.9138   -6.2918   22.4218 H   0  0  0  0  0  0
    4.5537   -2.1898   22.9762 H   0  0  0  0  0  0
    4.9847    1.3943   22.9734 H   0  0  0  0  0  0
    5.5516    3.6865   23.5163 H   0  0  0  0  0  0
  1  2  1  0  0  0
  1 38  1  0  0  0
  1 39  1  0  0  0
  1 40  1  0  0  0
  2  3  1  0  0  0
  2  4  1  0  0  0
  2  5  1  0  0  0
  3 41  1  0  0  0
  3 42  1  0  0  0
  3 43  1  0  0  0
  4 44  1  0  0  0
  4 45  1  0  0  0
  4 46  1  0  0  0
  5 37  2  0  0  0
  5  6  1  0  0  0
  6  7  2  0  0  0
  6 47  1  0  0  0
  7  8  1  0  0  0
  7 48  1  0  0  0
  8  9  1  0  0  0
  8 36  2  0  0  0
  9 10  1  0  0  0
  9 17  1  0  0  0
 10 11  2  0  0  0
 10 12  1  0  0  0
 12 16  1  0  0  0
 12 13  2  0  0  0
 13 14  1  0  0  0
 13 49  1  0  0  0
 14 15  1  0  0  0
 15 16  2  0  0  0
 15 50  1  0  0  0
 17 18  1  0  0  0
 17 30  1  0  0  0
 17 51  1  0  0  0
 18 19  2  0  0  0
 18 20  1  0  0  0
 20 21  1  0  0  0
 20 52  1  0  0  0
 21 22  1  0  0  0
 21 53  1  0  0  0
 21 54  1  0  0  0
 22 23  1  0  0  0
 22 55  1  0  0  0
 22 56  1  0  0  0
 23 29  2  0  0  0
 23 24  1  0  0  0
 24 25  2  0  0  0
 24 57  1  0  0  0
 25 26  1  0  0  0
 25 58  1  0  0  0
 26 27  2  0  0  0
 26 59  1  0  0  0
 27 28  1  0  0  0
 27 29  1  0  0  0
 29 60  1  0  0  0
 30 35  2  0  0  0
 30 31  1  0  0  0
 31 32  2  0  0  0
 31 61  1  0  0  0
 32 33  1  0  0  0
 32 62  1  0  0  0
 33 34  2  0  0  0
 33 63  1  0  0  0
 34 35  1  0  0  0
 35 64  1  0  0  0
 36 37  1  0  0  0
 36 65  1  0  0  0
 37 66  1  0  0  0
M  END
> <r_i_docking_score>
-4.6190898089958

$$$$
ligprep_5.maegz:254
                    3D
 Schrodinger Suite 2020-4.
 67 70  0  0  1  0            999 V2000
    5.5395   -5.5897   25.1270 C   0  0  0  0  0  0
    5.2656   -5.3036   23.6295 C   0  0  0  0  0  0
    5.9220   -6.4528   22.8176 C   0  0  0  0  0  0
    3.7432   -5.3489   23.3709 C   0  0  0  0  0  0
    5.8259   -3.9117   23.2442 C   0  0  0  0  0  0
    6.7386   -3.7540   22.1927 C   0  0  0  0  0  0
    7.2769   -2.5096   21.9062 C   0  0  0  0  0  0
    6.9430   -1.3816   22.6669 C   0  0  0  0  0  0
    7.5339   -0.1129   22.3873 N   0  0  0  0  0  0
    8.8876    0.0143   22.1196 C   0  0  0  0  0  0
    9.3666    0.9739   21.5084 O   0  0  0  0  0  0
    9.8113   -0.9928   22.6014 C   0  0  0  0  0  0
   11.1420   -1.2112   22.2668 C   0  0  0  0  0  0
   11.5793   -2.2584   23.0775 C   0  0  0  0  0  0
   10.6530   -2.6583   23.9085 N   0  0  0  0  0  0
    9.6324   -1.8341   23.6759 N   0  0  0  0  0  0
    6.5811    1.0086   22.0703 C   0  0  1  0  0  0
    7.0012    2.4015   22.6385 C   0  0  0  0  0  0
    7.0737    3.3904   21.9095 O   0  0  0  0  0  0
    7.3241    2.4347   23.9426 N   0  0  0  0  0  0
    7.7720    3.6291   24.6573 C   0  0  0  0  0  0
    9.1667    3.4650   25.2778 C   0  0  0  0  0  0
   10.3327    3.3649   24.3013 C   0  0  0  0  0  0
   10.9359    2.1280   24.0457 C   0  0  0  0  0  0
   12.0457    2.0415   23.2045 C   0  0  0  0  0  0
   12.5632    3.1949   22.6155 C   0  0  0  0  0  0
   11.9709    4.4312   22.8661 C   0  0  0  0  0  0
   12.4864    5.5472   22.3063 F   0  0  0  0  0  0
   10.8571    4.5171   23.7034 C   0  0  0  0  0  0
    6.1722    1.0412   20.5984 C   0  0  0  0  0  0
    5.1534    1.9133   20.1814 C   0  0  0  0  0  0
    4.7738    1.9677   18.8422 C   0  0  0  0  0  0
    5.4256    1.1335   17.9383 C   0  0  0  0  0  0
    6.3719    0.2426   18.3081 N   0  0  0  0  0  0
    6.7307    0.2062   19.6125 C   0  0  0  0  0  0
    5.9825   -1.5183   23.6766 C   0  0  0  0  0  0
    5.4357   -2.7705   23.9616 C   0  0  0  0  0  0
    5.1774   -6.5763   25.4235 H   0  0  0  0  0  0
    5.0483   -4.8710   25.7826 H   0  0  0  0  0  0
    6.6061   -5.5580   25.3504 H   0  0  0  0  0  0
    5.6982   -6.3810   21.7520 H   0  0  0  0  0  0
    7.0063   -6.4629   22.9346 H   0  0  0  0  0  0
    5.5701   -7.4324   23.1301 H   0  0  0  0  0  0
    3.5135   -5.1812   22.3183 H   0  0  0  0  0  0
    3.3219   -6.3204   23.6321 H   0  0  0  0  0  0
    3.2046   -4.6015   23.9534 H   0  0  0  0  0  0
    7.0707   -4.5866   21.5909 H   0  0  0  0  0  0
    7.9985   -2.4424   21.1073 H   0  0  0  0  0  0
   11.7097   -0.6961   21.5066 H   0  0  0  0  0  0
   12.5529   -2.7256   23.0532 H   0  0  0  0  0  0
    8.7649   -1.9144   24.1877 H   0  0  0  0  0  0
    5.6437    0.7742   22.5777 H   0  0  0  0  0  0
    7.2351    1.5862   24.4806 H   0  0  0  0  0  0
    7.8183    4.4815   23.9756 H   0  0  0  0  0  0
    7.0399    3.9160   25.4151 H   0  0  0  0  0  0
    9.3498    4.3066   25.9443 H   0  0  0  0  0  0
    9.1682    2.5798   25.9134 H   0  0  0  0  0  0
   10.5506    1.2309   24.5073 H   0  0  0  0  0  0
   12.5122    1.0847   23.0173 H   0  0  0  0  0  0
   13.4250    3.1358   21.9678 H   0  0  0  0  0  0
   10.4134    5.4830   23.8933 H   0  0  0  0  0  0
    4.6717    2.5731   20.8900 H   0  0  0  0  0  0
    4.0200    2.6646   18.5052 H   0  0  0  0  0  0
    5.1749    1.1648   16.8923 H   0  0  0  0  0  0
    7.5038   -0.5110   19.8282 H   0  0  0  0  0  0
    5.6748   -0.6618   24.2599 H   0  0  0  0  0  0
    4.7129   -2.8449   24.7614 H   0  0  0  0  0  0
  1  2  1  0  0  0
  1 38  1  0  0  0
  1 39  1  0  0  0
  1 40  1  0  0  0
  2  3  1  0  0  0
  2  4  1  0  0  0
  2  5  1  0  0  0
  3 41  1  0  0  0
  3 42  1  0  0  0
  3 43  1  0  0  0
  4 44  1  0  0  0
  4 45  1  0  0  0
  4 46  1  0  0  0
  5 37  2  0  0  0
  5  6  1  0  0  0
  6  7  2  0  0  0
  6 47  1  0  0  0
  7  8  1  0  0  0
  7 48  1  0  0  0
  8  9  1  0  0  0
  8 36  2  0  0  0
  9 10  1  0  0  0
  9 17  1  0  0  0
 10 11  2  0  0  0
 10 12  1  0  0  0
 12 16  1  0  0  0
 12 13  2  0  0  0
 13 14  1  0  0  0
 13 49  1  0  0  0
 14 15  2  0  0  0
 14 50  1  0  0  0
 15 16  1  0  0  0
 16 51  1  0  0  0
 17 18  1  0  0  0
 17 30  1  0  0  0
 17 52  1  0  0  0
 18 19  2  0  0  0
 18 20  1  0  0  0
 20 21  1  0  0  0
 20 53  1  0  0  0
 21 22  1  0  0  0
 21 54  1  0  0  0
 21 55  1  0  0  0
 22 23  1  0  0  0
 22 56  1  0  0  0
 22 57  1  0  0  0
 23 29  2  0  0  0
 23 24  1  0  0  0
 24 25  2  0  0  0
 24 58  1  0  0  0
 25 26  1  0  0  0
 25 59  1  0  0  0
 26 27  2  0  0  0
 26 60  1  0  0  0
 27 28  1  0  0  0
 27 29  1  0  0  0
 29 61  1  0  0  0
 30 35  2  0  0  0
 30 31  1  0  0  0
 31 32  2  0  0  0
 31 62  1  0  0  0
 32 33  1  0  0  0
 32 63  1  0  0  0
 33 34  2  0  0  0
 33 64  1  0  0  0
 34 35  1  0  0  0
 35 65  1  0  0  0
 36 37  1  0  0  0
 36 66  1  0  0  0
 37 67  1  0  0  0
M  END
> <r_i_docking_score>
-5.28507755463612

$$$$
ligprep_5.maegz:255
                    3D
 Schrodinger Suite 2020-4.
 64 66  0  0  1  0            999 V2000
    7.2924   -6.0360   22.0776 C   0  0  0  0  0  0
    6.9417   -4.7925   22.7706 N   0  0  0  0  0  0
    7.6315   -4.6530   24.0567 C   0  0  0  0  0  0
    6.0840   -3.8873   22.2274 C   0  0  0  0  0  0
    5.5703   -4.0535   21.1165 O   0  0  0  0  0  0
    5.6614   -2.6265   23.0077 C   0  0  0  0  0  0
    6.3140   -1.4735   22.3964 N   0  0  0  0  0  0
    7.4767   -0.9347   22.8015 C   0  0  0  0  0  0
    8.0755   -1.3281   23.8031 O   0  0  0  0  0  0
    8.0950    0.2070   21.9338 C   0  0  1  0  0  0
    7.1030    0.7456   20.8906 C   0  0  0  0  0  0
    7.2264    0.3483   19.5496 C   0  0  0  0  0  0
    6.2819    0.7471   18.6014 C   0  0  0  0  0  0
    5.2137    1.5398   19.0167 C   0  0  0  0  0  0
    5.0462    1.9194   20.3061 N   0  0  0  0  0  0
    5.9703    1.5148   21.2139 C   0  0  0  0  0  0
    8.7788    1.2518   22.7800 N   0  0  0  0  0  0
   10.1317    1.2921   23.0736 C   0  0  0  0  0  0
   10.6531    2.2260   23.6988 O   0  0  0  0  0  0
   11.0351    0.2166   22.6916 C   0  0  0  0  0  0
   12.4309    0.1992   22.6995 C   0  0  0  0  0  0
   12.8376   -1.0770   22.3078 C   0  0  0  0  0  0
   11.6808   -1.8206   22.1789 C   0  0  0  0  0  0
   10.5971   -1.0450   22.4309 O   0  0  0  0  0  0
    8.0025    2.2951   23.3372 C   0  0  0  0  0  0
    7.2748    2.0692   24.5071 C   0  0  0  0  0  0
    6.5081    3.0943   25.0542 C   0  0  0  0  0  0
    6.4612    4.3611   24.4482 C   0  0  0  0  0  0
    5.5978    5.5174   25.0132 C   0  0  0  0  0  0
    4.4685    5.8493   24.0095 C   0  0  0  0  0  0
    6.4708    6.7787   25.2335 C   0  0  0  0  0  0
    4.9351    5.1791   26.3742 C   0  0  0  0  0  0
    7.2147    4.5745   23.2839 C   0  0  0  0  0  0
    7.9913    3.5583   22.7402 C   0  0  0  0  0  0
    6.8055   -6.1351   21.1072 H   0  0  0  0  0  0
    8.3693   -6.0848   21.9113 H   0  0  0  0  0  0
    7.0054   -6.8989   22.6795 H   0  0  0  0  0  0
    7.4873   -3.6974   24.5538 H   0  0  0  0  0  0
    7.3065   -5.4345   24.7441 H   0  0  0  0  0  0
    8.7067   -4.7626   23.9139 H   0  0  0  0  0  0
    5.8083   -2.6810   24.0844 H   0  0  0  0  0  0
    4.5872   -2.4941   22.8779 H   0  0  0  0  0  0
    5.8665   -1.0878   21.5759 H   0  0  0  0  0  0
    8.8520   -0.2925   21.3372 H   0  0  0  0  0  0
    8.0372   -0.2924   19.2364 H   0  0  0  0  0  0
    6.3721    0.4455   17.5678 H   0  0  0  0  0  0
    4.4691    1.8803   18.3092 H   0  0  0  0  0  0
    5.7447    1.7971   22.2301 H   0  0  0  0  0  0
   13.0757    1.0358   22.9295 H   0  0  0  0  0  0
   13.8506   -1.4251   22.1710 H   0  0  0  0  0  0
   11.4788   -2.8488   21.9158 H   0  0  0  0  0  0
    7.2999    1.1026   24.9905 H   0  0  0  0  0  0
    5.9532    2.8766   25.9526 H   0  0  0  0  0  0
    3.8345    6.6609   24.3691 H   0  0  0  0  0  0
    3.8247    4.9861   23.8364 H   0  0  0  0  0  0
    4.8592    6.1574   23.0389 H   0  0  0  0  0  0
    7.3191    6.5672   25.8849 H   0  0  0  0  0  0
    6.8677    7.1745   24.2993 H   0  0  0  0  0  0
    5.9018    7.5874   25.6933 H   0  0  0  0  0  0
    5.6777    4.9337   27.1349 H   0  0  0  0  0  0
    4.3533    6.0197   26.7565 H   0  0  0  0  0  0
    4.2455    4.3381   26.2928 H   0  0  0  0  0  0
    7.2003    5.5317   22.7839 H   0  0  0  0  0  0
    8.5744    3.7486   21.8540 H   0  0  0  0  0  0
  1  2  1  0  0  0
  1 35  1  0  0  0
  1 36  1  0  0  0
  1 37  1  0  0  0
  2  3  1  0  0  0
  2  4  1  0  0  0
  3 38  1  0  0  0
  3 39  1  0  0  0
  3 40  1  0  0  0
  4  5  2  0  0  0
  4  6  1  0  0  0
  6  7  1  0  0  0
  6 41  1  0  0  0
  6 42  1  0  0  0
  7  8  1  0  0  0
  7 43  1  0  0  0
  8  9  2  0  0  0
  8 10  1  0  0  0
 10 11  1  0  0  0
 10 17  1  0  0  0
 10 44  1  0  0  0
 11 16  2  0  0  0
 11 12  1  0  0  0
 12 13  2  0  0  0
 12 45  1  0  0  0
 13 14  1  0  0  0
 13 46  1  0  0  0
 14 15  2  0  0  0
 14 47  1  0  0  0
 15 16  1  0  0  0
 16 48  1  0  0  0
 17 18  1  0  0  0
 17 25  1  0  0  0
 18 19  2  0  0  0
 18 20  1  0  0  0
 20 24  1  0  0  0
 20 21  2  0  0  0
 21 22  1  0  0  0
 21 49  1  0  0  0
 22 23  2  0  0  0
 22 50  1  0  0  0
 23 24  1  0  0  0
 23 51  1  0  0  0
 25 34  2  0  0  0
 25 26  1  0  0  0
 26 27  2  0  0  0
 26 52  1  0  0  0
 27 28  1  0  0  0
 27 53  1  0  0  0
 28 29  1  0  0  0
 28 33  2  0  0  0
 29 30  1  0  0  0
 29 31  1  0  0  0
 29 32  1  0  0  0
 30 54  1  0  0  0
 30 55  1  0  0  0
 30 56  1  0  0  0
 31 57  1  0  0  0
 31 58  1  0  0  0
 31 59  1  0  0  0
 32 60  1  0  0  0
 32 61  1  0  0  0
 32 62  1  0  0  0
 33 34  1  0  0  0
 33 63  1  0  0  0
 34 64  1  0  0  0
M  END
> <r_i_docking_score>
-4.18277239092721

$$$$
ligprep_5.maegz:256
                    3D
 Schrodinger Suite 2020-4.
 70 73  0  0  1  0            999 V2000
    6.1194    1.0769   29.8949 C   0  0  0  0  0  0
    5.3167    1.6984   28.7198 C   0  0  0  0  0  0
    3.8164    1.4460   29.0177 C   0  0  0  0  0  0
    5.5887    3.2212   28.7155 C   0  0  0  0  0  0
    5.6998    1.1123   27.3369 C   0  0  0  0  0  0
    4.9600    1.4798   26.2018 C   0  0  0  0  0  0
    5.3028    1.0059   24.9398 C   0  0  0  0  0  0
    6.3990    0.1539   24.7958 C   0  0  0  0  0  0
    6.7894   -0.2640   23.5031 N   0  0  0  0  0  0
    6.6472   -1.5850   23.1194 C   0  0  0  0  0  0
    7.2118   -2.0467   22.1246 O   0  0  0  0  0  0
    5.7918   -2.4972   23.8673 C   0  0  0  0  0  0
    5.7141   -3.8872   23.8105 C   0  0  0  0  0  0
    4.6614   -4.2812   24.6375 C   0  0  0  0  0  0
    4.1071   -3.1158   25.1345 C   0  0  0  0  0  0
    4.7714   -2.0381   24.6450 O   0  0  0  0  0  0
    7.5579    0.7015   22.6246 C   0  0  1  0  0  0
    7.1323    0.7923   21.1331 C   0  0  0  0  0  0
    7.9695    1.1471   20.3076 O   0  0  0  0  0  0
    5.8533    0.5146   20.8427 N   0  0  0  0  0  0
    5.2121    0.6962   19.5481 C   0  0  0  0  0  0
    4.6462    2.1197   19.3170 C   0  0  0  0  0  0
    3.3633    2.3519   19.9973 N   0  0  0  0  0  0
    3.5485    2.7205   21.4083 C   0  0  0  0  0  0
    2.1868    2.9400   22.1025 C   0  0  0  0  0  0
    1.4494    3.9547   21.4279 O   0  0  0  0  0  0
    1.2412    3.6501   20.0495 C   0  0  0  0  0  0
    2.5919    3.4165   19.3360 C   0  0  0  0  0  0
    7.7720    2.0904   23.2379 C   0  0  0  0  0  0
    8.6945    2.2538   24.2811 C   0  0  0  0  0  0
    8.8785    3.5074   24.8654 C   0  0  0  0  0  0
    8.1433    4.5871   24.3782 C   0  0  0  0  0  0
    7.2548    4.4701   23.3632 N   0  0  0  0  0  0
    7.0819    3.2425   22.8133 C   0  0  0  0  0  0
    7.1355   -0.2404   25.9146 C   0  0  0  0  0  0
    6.7919    0.2438   27.1715 C   0  0  0  0  0  0
    5.8082    1.4942   30.8546 H   0  0  0  0  0  0
    7.1914    1.2631   29.8066 H   0  0  0  0  0  0
    5.9688   -0.0020   29.9560 H   0  0  0  0  0  0
    3.1568    1.9472   28.3079 H   0  0  0  0  0  0
    3.5791    0.3811   28.9862 H   0  0  0  0  0  0
    3.5341    1.8098   30.0062 H   0  0  0  0  0  0
    4.9894    3.7379   27.9648 H   0  0  0  0  0  0
    5.3553    3.6733   29.6798 H   0  0  0  0  0  0
    6.6362    3.4374   28.4963 H   0  0  0  0  0  0
    4.1241    2.1575   26.2867 H   0  0  0  0  0  0
    4.7348    1.3157   24.0746 H   0  0  0  0  0  0
    6.3573   -4.5372   23.2334 H   0  0  0  0  0  0
    4.3352   -5.2927   24.8363 H   0  0  0  0  0  0
    3.2788   -2.9057   25.7956 H   0  0  0  0  0  0
    8.5580    0.2640   22.5842 H   0  0  0  0  0  0
    5.2416    0.2135   21.5895 H   0  0  0  0  0  0
    5.8843    0.4220   18.7310 H   0  0  0  0  0  0
    4.4008   -0.0316   19.5078 H   0  0  0  0  0  0
    5.3847    2.9027   19.5005 H   0  0  0  0  0  0
    4.4187    2.1643   18.2528 H   0  0  0  0  0  0
    4.0929    1.9478   21.9409 H   0  0  0  0  0  0
    4.1608    3.6221   21.4773 H   0  0  0  0  0  0
    2.3437    3.2510   23.1355 H   0  0  0  0  0  0
    1.6124    2.0123   22.1372 H   0  0  0  0  0  0
    0.7177    4.4851   19.5845 H   0  0  0  0  0  0
    0.5946    2.7766   19.9488 H   0  0  0  0  0  0
    3.1698    4.3421   19.2958 H   0  0  0  0  0  0
    2.4024    3.1431   18.3031 H   0  0  0  0  0  0
    9.2529    1.4075   24.6521 H   0  0  0  0  0  0
    9.5690    3.6370   25.6807 H   0  0  0  0  0  0
    8.2564    5.5739   24.8037 H   0  0  0  0  0  0
    6.3635    3.2095   22.0091 H   0  0  0  0  0  0
    7.9898   -0.8934   25.8072 H   0  0  0  0  0  0
    7.4102   -0.0522   28.0017 H   0  0  0  0  0  0
  1  2  1  0  0  0
  1 37  1  0  0  0
  1 38  1  0  0  0
  1 39  1  0  0  0
  2  3  1  0  0  0
  2  4  1  0  0  0
  2  5  1  0  0  0
  3 40  1  0  0  0
  3 41  1  0  0  0
  3 42  1  0  0  0
  4 43  1  0  0  0
  4 44  1  0  0  0
  4 45  1  0  0  0
  5 36  2  0  0  0
  5  6  1  0  0  0
  6  7  2  0  0  0
  6 46  1  0  0  0
  7  8  1  0  0  0
  7 47  1  0  0  0
  8  9  1  0  0  0
  8 35  2  0  0  0
  9 10  1  0  0  0
  9 17  1  0  0  0
 10 11  2  0  0  0
 10 12  1  0  0  0
 12 16  1  0  0  0
 12 13  2  0  0  0
 13 14  1  0  0  0
 13 48  1  0  0  0
 14 15  2  0  0  0
 14 49  1  0  0  0
 15 16  1  0  0  0
 15 50  1  0  0  0
 17 18  1  0  0  0
 17 29  1  0  0  0
 17 51  1  0  0  0
 18 19  2  0  0  0
 18 20  1  0  0  0
 20 21  1  0  0  0
 20 52  1  0  0  0
 21 22  1  0  0  0
 21 53  1  0  0  0
 21 54  1  0  0  0
 22 23  1  0  0  0
 22 55  1  0  0  0
 22 56  1  0  0  0
 23 28  1  0  0  0
 23 24  1  0  0  0
 24 25  1  0  0  0
 24 57  1  0  0  0
 24 58  1  0  0  0
 25 26  1  0  0  0
 25 59  1  0  0  0
 25 60  1  0  0  0
 26 27  1  0  0  0
 27 28  1  0  0  0
 27 61  1  0  0  0
 27 62  1  0  0  0
 28 63  1  0  0  0
 28 64  1  0  0  0
 29 34  2  0  0  0
 29 30  1  0  0  0
 30 31  2  0  0  0
 30 65  1  0  0  0
 31 32  1  0  0  0
 31 66  1  0  0  0
 32 33  2  0  0  0
 32 67  1  0  0  0
 33 34  1  0  0  0
 34 68  1  0  0  0
 35 36  1  0  0  0
 35 69  1  0  0  0
 36 70  1  0  0  0
M  END
> <r_i_docking_score>
-1.41815787041342

$$$$
ligprep_5.maegz:257
                    3D
 Schrodinger Suite 2020-4.
 61 64  0  0  1  0            999 V2000
    5.8508    5.8534   22.9600 C   0  0  0  0  0  0
    7.2014    5.1351   23.2203 C   0  0  0  0  0  0
    8.2498    5.8132   22.3002 C   0  0  0  0  0  0
    7.6356    5.3656   24.6854 C   0  0  0  0  0  0
    7.0511    3.6131   22.9587 C   0  0  0  0  0  0
    7.9004    2.9153   22.0857 C   0  0  0  0  0  0
    7.7060    1.5617   21.8324 C   0  0  0  0  0  0
    6.6452    0.8775   22.4409 C   0  0  0  0  0  0
    6.3693   -0.4823   22.1321 N   0  0  0  0  0  0
    6.1358   -0.8772   20.8296 C   0  0  0  0  0  0
    6.1614   -2.0527   20.4661 O   0  0  0  0  0  0
    5.8512    0.1061   19.8128 C   0  0  0  0  0  0
    6.0275    0.0256   18.4397 C   0  0  0  0  0  0
    5.5693    1.2210   17.9079 C   0  0  0  0  0  0
    5.0375    1.9469   18.9598 C   0  0  0  0  0  0
    5.1842    1.2541   20.1154 O   0  0  0  0  0  0
    6.6669   -1.4674   23.2281 C   0  0  1  0  0  0
    5.7091   -2.6957   23.4178 C   0  0  0  0  0  0
    4.7687   -2.8535   22.6523 O   0  0  0  0  0  0
    5.9566   -3.5138   24.4650 N   0  0  0  0  0  0
    5.2453   -4.6393   24.9310 C   0  0  0  0  0  0
    5.7959   -5.2804   26.0472 C   0  0  0  0  0  0
    5.1620   -6.3864   26.6058 C   0  0  0  0  0  0
    3.9743   -6.8532   26.0500 C   0  0  0  0  0  0
    3.4227   -6.2354   24.9308 C   0  0  0  0  0  0
    4.0523   -5.1290   24.3688 C   0  0  0  0  0  0
    8.1419   -1.8459   23.2573 C   0  0  0  0  0  0
    9.0185   -1.7162   22.1605 C   0  0  0  0  0  0
   10.3641   -2.0519   22.2904 C   0  0  0  0  0  0
   10.7977   -2.5544   23.5079 C   0  0  0  0  0  0
    9.9697   -2.7222   24.5671 N   0  0  0  0  0  0
    8.6929   -2.3161   24.4524 C   0  0  0  0  0  0
    5.8308    1.5453   23.3563 C   0  0  0  0  0  0
    6.0325    2.8984   23.6078 C   0  0  0  0  0  0
    5.9352    6.9324   23.1028 H   0  0  0  0  0  0
    5.0595    5.5168   23.6311 H   0  0  0  0  0  0
    5.5015    5.6924   21.9381 H   0  0  0  0  0  0
    9.2515    5.4120   22.4524 H   0  0  0  0  0  0
    7.9899    5.6878   21.2475 H   0  0  0  0  0  0
    8.3167    6.8860   22.4792 H   0  0  0  0  0  0
    8.5927    4.8904   24.8954 H   0  0  0  0  0  0
    7.7450    6.4275   24.9081 H   0  0  0  0  0  0
    6.9101    4.9647   25.3942 H   0  0  0  0  0  0
    8.7138    3.4073   21.5734 H   0  0  0  0  0  0
    8.3565    1.0549   21.1363 H   0  0  0  0  0  0
    6.4746   -0.7977   17.9042 H   0  0  0  0  0  0
    5.5872    1.5206   16.8703 H   0  0  0  0  0  0
    4.5596    2.9164   19.0293 H   0  0  0  0  0  0
    6.5241   -0.8863   24.1403 H   0  0  0  0  0  0
    6.7693   -3.2884   25.0167 H   0  0  0  0  0  0
    6.7137   -4.9269   26.4915 H   0  0  0  0  0  0
    5.5905   -6.8807   27.4683 H   0  0  0  0  0  0
    3.4793   -7.7108   26.4861 H   0  0  0  0  0  0
    2.5040   -6.6080   24.4999 H   0  0  0  0  0  0
    3.5867   -4.6733   23.5096 H   0  0  0  0  0  0
    8.6904   -1.3572   21.1998 H   0  0  0  0  0  0
   11.0511   -1.9564   21.4626 H   0  0  0  0  0  0
   11.8211   -2.8681   23.6446 H   0  0  0  0  0  0
    8.1181   -2.3781   25.3640 H   0  0  0  0  0  0
    5.0177    1.0262   23.8426 H   0  0  0  0  0  0
    5.3734    3.3948   24.3036 H   0  0  0  0  0  0
  1  2  1  0  0  0
  1 35  1  0  0  0
  1 36  1  0  0  0
  1 37  1  0  0  0
  2  3  1  0  0  0
  2  4  1  0  0  0
  2  5  1  0  0  0
  3 38  1  0  0  0
  3 39  1  0  0  0
  3 40  1  0  0  0
  4 41  1  0  0  0
  4 42  1  0  0  0
  4 43  1  0  0  0
  5 34  2  0  0  0
  5  6  1  0  0  0
  6  7  2  0  0  0
  6 44  1  0  0  0
  7  8  1  0  0  0
  7 45  1  0  0  0
  8  9  1  0  0  0
  8 33  2  0  0  0
  9 10  1  0  0  0
  9 17  1  0  0  0
 10 11  2  0  0  0
 10 12  1  0  0  0
 12 16  1  0  0  0
 12 13  2  0  0  0
 13 14  1  0  0  0
 13 46  1  0  0  0
 14 15  2  0  0  0
 14 47  1  0  0  0
 15 16  1  0  0  0
 15 48  1  0  0  0
 17 18  1  0  0  0
 17 27  1  0  0  0
 17 49  1  0  0  0
 18 19  2  0  0  0
 18 20  1  0  0  0
 20 21  1  0  0  0
 20 50  1  0  0  0
 21 26  2  0  0  0
 21 22  1  0  0  0
 22 23  2  0  0  0
 22 51  1  0  0  0
 23 24  1  0  0  0
 23 52  1  0  0  0
 24 25  2  0  0  0
 24 53  1  0  0  0
 25 26  1  0  0  0
 25 54  1  0  0  0
 26 55  1  0  0  0
 27 32  2  0  0  0
 27 28  1  0  0  0
 28 29  2  0  0  0
 28 56  1  0  0  0
 29 30  1  0  0  0
 29 57  1  0  0  0
 30 31  2  0  0  0
 30 58  1  0  0  0
 31 32  1  0  0  0
 32 59  1  0  0  0
 33 34  1  0  0  0
 33 60  1  0  0  0
 34 61  1  0  0  0
M  END
> <r_i_docking_score>
-3.74799559362321

$$$$
ligprep_5.maegz:258
                    3D
 Schrodinger Suite 2020-4.
 68 72  0  0  1  0            999 V2000
    8.8217   -3.0455   24.6159 O   0  0  0  0  0  0
    8.0395   -3.9203   24.2446 C   0  0  0  0  0  0
    7.9112   -5.0747   24.9206 N   0  0  0  0  0  0
    8.5744   -5.3847   26.1807 C   0  0  0  0  0  0
    7.9383   -4.6886   27.3979 C   0  0  0  0  0  0
    6.4302   -4.8534   27.5389 C   0  0  0  0  0  0
    5.5683   -3.8002   27.2196 C   0  0  0  0  0  0
    4.1927   -3.9351   27.4109 C   0  0  0  0  0  0
    3.6699   -5.1335   27.8975 C   0  0  0  0  0  0
    4.5240   -6.1898   28.2105 C   0  0  0  0  0  0
    4.0171   -7.3485   28.6878 F   0  0  0  0  0  0
    5.9004   -6.0449   28.0404 C   0  0  0  0  0  0
    7.1291   -3.7651   22.9738 C   0  0  1  0  0  0
    5.7508   -4.3486   23.2716 C   0  0  0  0  0  0
    5.4427   -5.6800   22.9589 C   0  0  0  0  0  0
    4.2038   -6.2079   23.3281 C   0  0  0  0  0  0
    3.2980   -5.3820   23.9937 C   0  0  0  0  0  0
    3.5693   -4.0890   24.2991 N   0  0  0  0  0  0
    4.7753   -3.5908   23.9315 C   0  0  0  0  0  0
    7.0706   -2.4426   22.2327 N   0  0  0  0  0  0
    6.2408   -2.3132   21.1338 C   0  0  0  0  0  0
    5.5697   -3.2500   20.6896 O   0  0  0  0  0  0
    6.1772   -1.0557   20.4049 C   0  0  0  0  0  0
    5.9972    0.2664   20.8081 C   0  0  0  0  0  0
    5.9052    1.0443   19.6516 C   0  0  0  0  0  0
    5.9697    0.1619   18.5890 C   0  0  0  0  0  0
    6.0803   -1.1115   19.0473 O   0  0  0  0  0  0
    8.0980   -1.4918   22.4157 C   0  0  0  0  0  0
    7.9171   -0.4381   23.3137 C   0  0  0  0  0  0
    8.9396    0.4856   23.5018 C   0  0  0  0  0  0
   10.1436    0.3684   22.7980 C   0  0  0  0  0  0
   11.2098    1.4469   23.0096 C   0  0  0  0  0  0
   12.6459    1.2228   22.4917 C   0  0  0  0  0  0
   13.2563    2.6213   22.3182 C   0  0  0  0  0  0
   12.1119    3.6393   22.3769 C   0  0  0  0  0  0
   10.8220    2.8245   22.4621 C   0  0  0  0  0  0
   10.3203   -0.6982   21.9078 C   0  0  0  0  0  0
    9.3014   -1.6259   21.7178 C   0  0  0  0  0  0
    7.2498   -5.7552   24.5781 H   0  0  0  0  0  0
    9.6487   -5.1945   26.1212 H   0  0  0  0  0  0
    8.4312   -6.4541   26.2968 H   0  0  0  0  0  0
    8.1944   -3.6276   27.3913 H   0  0  0  0  0  0
    8.3915   -5.0956   28.2953 H   0  0  0  0  0  0
    5.9647   -2.8728   26.8329 H   0  0  0  0  0  0
    3.5310   -3.1172   27.1665 H   0  0  0  0  0  0
    2.6050   -5.2463   28.0354 H   0  0  0  0  0  0
    6.5567   -6.8580   28.3081 H   0  0  0  0  0  0
    7.6358   -4.4156   22.2586 H   0  0  0  0  0  0
    6.1606   -6.3055   22.4482 H   0  0  0  0  0  0
    3.9536   -7.2377   23.1087 H   0  0  0  0  0  0
    2.3325   -5.7571   24.3006 H   0  0  0  0  0  0
    4.9670   -2.5630   24.2032 H   0  0  0  0  0  0
    5.9304    0.6304   21.8223 H   0  0  0  0  0  0
    5.7744    2.1167   19.5957 H   0  0  0  0  0  0
    5.9192    0.2796   17.5157 H   0  0  0  0  0  0
    6.9945   -0.3413   23.8670 H   0  0  0  0  0  0
    8.7912    1.3015   24.1942 H   0  0  0  0  0  0
   11.2893    1.5491   24.0946 H   0  0  0  0  0  0
   13.2199    0.5545   23.1354 H   0  0  0  0  0  0
   12.6542    0.7469   21.5094 H   0  0  0  0  0  0
   13.9693    2.8333   23.1075 H   0  0  0  0  0  0
   13.8028    2.6963   21.3825 H   0  0  0  0  0  0
   12.2142    4.2664   23.2643 H   0  0  0  0  0  0
   12.1135    4.3044   21.5124 H   0  0  0  0  0  0
   10.4096    2.6976   21.4619 H   0  0  0  0  0  0
   10.0165    3.2973   23.0260 H   0  0  0  0  0  0
   11.2321   -0.8306   21.3486 H   0  0  0  0  0  0
    9.4541   -2.4506   21.0366 H   0  0  0  0  0  0
  1  2  2  0  0  0
  2  3  1  0  0  0
  2 13  1  0  0  0
  3  4  1  0  0  0
  3 39  1  0  0  0
  4  5  1  0  0  0
  4 40  1  0  0  0
  4 41  1  0  0  0
  5  6  1  0  0  0
  5 42  1  0  0  0
  5 43  1  0  0  0
  6 12  2  0  0  0
  6  7  1  0  0  0
  7  8  2  0  0  0
  7 44  1  0  0  0
  8  9  1  0  0  0
  8 45  1  0  0  0
  9 10  2  0  0  0
  9 46  1  0  0  0
 10 11  1  0  0  0
 10 12  1  0  0  0
 12 47  1  0  0  0
 13 14  1  0  0  0
 13 20  1  0  0  0
 13 48  1  0  0  0
 14 19  2  0  0  0
 14 15  1  0  0  0
 15 16  2  0  0  0
 15 49  1  0  0  0
 16 17  1  0  0  0
 16 50  1  0  0  0
 17 18  2  0  0  0
 17 51  1  0  0  0
 18 19  1  0  0  0
 19 52  1  0  0  0
 20 21  1  0  0  0
 20 28  1  0  0  0
 21 22  2  0  0  0
 21 23  1  0  0  0
 23 27  1  0  0  0
 23 24  2  0  0  0
 24 25  1  0  0  0
 24 53  1  0  0  0
 25 26  2  0  0  0
 25 54  1  0  0  0
 26 27  1  0  0  0
 26 55  1  0  0  0
 28 38  2  0  0  0
 28 29  1  0  0  0
 29 30  2  0  0  0
 29 56  1  0  0  0
 30 31  1  0  0  0
 30 57  1  0  0  0
 31 32  1  0  0  0
 31 37  2  0  0  0
 32 36  1  0  0  0
 32 33  1  0  0  0
 32 58  1  0  0  0
 33 34  1  0  0  0
 33 59  1  0  0  0
 33 60  1  0  0  0
 34 35  1  0  0  0
 34 61  1  0  0  0
 34 62  1  0  0  0
 35 36  1  0  0  0
 35 63  1  0  0  0
 35 64  1  0  0  0
 36 65  1  0  0  0
 36 66  1  0  0  0
 37 38  1  0  0  0
 37 67  1  0  0  0
 38 68  1  0  0  0
M  END
> <r_i_docking_score>
-5.18545777309912

$$$$
ligprep_5.maegz:259
                    3D
 Schrodinger Suite 2020-4.
 63 66  0  0  1  0            999 V2000
    7.3685    6.6075   25.5507 C   0  0  0  0  0  0
    7.9660    6.7364   24.1318 C   0  0  0  0  0  0
    7.0604    7.6680   23.2928 C   0  0  0  0  0  0
    9.3734    7.3675   24.2215 C   0  0  0  0  0  0
    8.0739    5.3563   23.4808 C   0  0  0  0  0  0
    7.5730    4.8738   22.2642 C   0  0  0  0  0  0
    7.8772    3.6446   21.9079 N   0  0  0  0  0  0
    8.6028    3.0402   22.8090 C   0  0  0  0  0  0
    9.0673    1.7180   22.6904 N   0  0  0  0  0  0
   10.4369    1.5282   22.6776 C   0  0  0  0  0  0
   11.2420    2.4647   22.7649 O   0  0  0  0  0  0
   11.0360    0.2071   22.5278 C   0  0  0  0  0  0
   12.3672   -0.1736   22.7074 C   0  0  0  0  0  0
   12.4903   -1.5049   22.3079 C   0  0  0  0  0  0
   11.2291   -1.8979   21.9096 C   0  0  0  0  0  0
   10.3726   -0.8468   21.9789 O   0  0  0  0  0  0
    8.0149    0.6521   22.6907 C   0  0  1  0  0  0
    7.2285    0.5397   24.0270 C   0  0  0  0  0  0
    7.8078    0.7681   25.0895 O   0  0  0  0  0  0
    5.9695    0.0795   23.9651 N   0  0  0  0  0  0
    5.2022   -0.4296   25.1001 C   0  0  0  0  0  0
    5.7659   -1.7534   25.6838 C   0  0  0  0  0  0
    6.2488   -2.8086   24.6798 C   0  0  0  0  0  0
    7.3376   -3.6206   25.0172 C   0  0  0  0  0  0
    7.8260   -4.5642   24.1135 C   0  0  0  0  0  0
    7.2297   -4.7050   22.8607 C   0  0  0  0  0  0
    6.1396   -3.9079   22.5163 C   0  0  0  0  0  0
    5.5697   -4.0363   21.2965 F   0  0  0  0  0  0
    5.6429   -2.9731   23.4251 C   0  0  0  0  0  0
    7.2081    0.6393   21.3914 C   0  0  0  0  0  0
    7.6416   -0.1324   20.3054 C   0  0  0  0  0  0
    6.9246   -0.1315   19.1082 C   0  0  0  0  0  0
    5.7700    0.6442   19.0216 C   0  0  0  0  0  0
    5.3081    1.3851   20.0577 N   0  0  0  0  0  0
    6.0197    1.3720   21.2139 C   0  0  0  0  0  0
    8.9440    4.0161   24.2100 S   0  0  0  0  0  0
    7.2569    7.5796   26.0320 H   0  0  0  0  0  0
    7.9954    5.9942   26.1989 H   0  0  0  0  0  0
    6.3829    6.1394   25.5219 H   0  0  0  0  0  0
    7.4416    7.7878   22.2770 H   0  0  0  0  0  0
    6.0465    7.2718   23.2093 H   0  0  0  0  0  0
    6.9886    8.6649   23.7295 H   0  0  0  0  0  0
    9.8290    7.4513   23.2338 H   0  0  0  0  0  0
    9.3393    8.3684   24.6555 H   0  0  0  0  0  0
   10.0491    6.7662   24.8307 H   0  0  0  0  0  0
    6.9772    5.4525   21.5715 H   0  0  0  0  0  0
   13.1626    0.4615   23.0674 H   0  0  0  0  0  0
   13.3831   -2.1123   22.3076 H   0  0  0  0  0  0
   10.8317   -2.8280   21.5202 H   0  0  0  0  0  0
    8.4610   -0.3303   22.7526 H   0  0  0  0  0  0
    5.5478   -0.0537   23.0551 H   0  0  0  0  0  0
    5.1525    0.3475   25.8662 H   0  0  0  0  0  0
    4.1999   -0.6009   24.7076 H   0  0  0  0  0  0
    6.6154   -1.4825   26.3140 H   0  0  0  0  0  0
    5.0331   -2.2073   26.3525 H   0  0  0  0  0  0
    7.8193   -3.5148   25.9784 H   0  0  0  0  0  0
    8.6724   -5.1781   24.3852 H   0  0  0  0  0  0
    7.6177   -5.4237   22.1539 H   0  0  0  0  0  0
    4.8002   -2.3619   23.1375 H   0  0  0  0  0  0
    8.5358   -0.7329   20.3742 H   0  0  0  0  0  0
    7.2600   -0.7197   18.2665 H   0  0  0  0  0  0
    5.1874    0.6761   18.1120 H   0  0  0  0  0  0
    5.6210    1.9926   22.0037 H   0  0  0  0  0  0
  1  2  1  0  0  0
  1 37  1  0  0  0
  1 38  1  0  0  0
  1 39  1  0  0  0
  2  3  1  0  0  0
  2  4  1  0  0  0
  2  5  1  0  0  0
  3 40  1  0  0  0
  3 41  1  0  0  0
  3 42  1  0  0  0
  4 43  1  0  0  0
  4 44  1  0  0  0
  4 45  1  0  0  0
  5 36  1  0  0  0
  5  6  2  0  0  0
  6  7  1  0  0  0
  6 46  1  0  0  0
  7  8  2  0  0  0
  8  9  1  0  0  0
  8 36  1  0  0  0
  9 10  1  0  0  0
  9 17  1  0  0  0
 10 11  2  0  0  0
 10 12  1  0  0  0
 12 16  1  0  0  0
 12 13  2  0  0  0
 13 14  1  0  0  0
 13 47  1  0  0  0
 14 15  2  0  0  0
 14 48  1  0  0  0
 15 16  1  0  0  0
 15 49  1  0  0  0
 17 18  1  0  0  0
 17 30  1  0  0  0
 17 50  1  0  0  0
 18 19  2  0  0  0
 18 20  1  0  0  0
 20 21  1  0  0  0
 20 51  1  0  0  0
 21 22  1  0  0  0
 21 52  1  0  0  0
 21 53  1  0  0  0
 22 23  1  0  0  0
 22 54  1  0  0  0
 22 55  1  0  0  0
 23 29  2  0  0  0
 23 24  1  0  0  0
 24 25  2  0  0  0
 24 56  1  0  0  0
 25 26  1  0  0  0
 25 57  1  0  0  0
 26 27  2  0  0  0
 26 58  1  0  0  0
 27 28  1  0  0  0
 27 29  1  0  0  0
 29 59  1  0  0  0
 30 35  2  0  0  0
 30 31  1  0  0  0
 31 32  2  0  0  0
 31 60  1  0  0  0
 32 33  1  0  0  0
 32 61  1  0  0  0
 33 34  2  0  0  0
 33 62  1  0  0  0
 34 35  1  0  0  0
 35 63  1  0  0  0
M  END
> <r_i_docking_score>
-5.49265464073804

$$$$
ligprep_5.maegz:260
                    3D
 Schrodinger Suite 2020-4.
 79 83  0  0  1  0            999 V2000
    5.5697   -2.3139   18.5751 C   0  0  0  0  0  0
    5.5697   -2.7415   19.9330 O   0  0  0  0  0  0
    6.3396   -2.0535   20.8409 C   0  0  0  0  0  0
    7.2337   -2.8255   21.5703 C   0  0  0  0  0  0
    8.0414   -2.2530   22.5415 C   0  0  0  0  0  0
    7.9268   -0.8868   22.8498 C   0  0  0  0  0  0
    8.7633   -0.2613   23.8103 N   0  0  0  0  0  0
    9.0133   -0.8194   25.0524 C   0  0  0  0  0  0
    9.9485   -0.4529   25.7650 O   0  0  0  0  0  0
    8.1634   -1.8873   25.5458 C   0  0  0  0  0  0
    6.7936   -2.1295   25.4471 C   0  0  0  0  0  0
    6.5359   -3.3038   26.1566 C   0  0  0  0  0  0
    7.7422   -3.6978   26.7079 C   0  0  0  0  0  0
    8.7135   -2.8077   26.3853 O   0  0  0  0  0  0
    9.6237    0.8616   23.2895 C   0  0  1  0  0  0
    9.5618    2.1173   24.2243 C   0  0  0  0  0  0
   10.5796    2.6098   24.7077 O   0  0  0  0  0  0
    8.3348    2.5645   24.5417 N   0  0  0  0  0  0
    8.1148    3.6271   25.5205 C   0  0  0  0  0  0
    8.1964    5.0548   24.9400 C   0  0  0  0  0  0
    7.0895    5.5035   23.9864 C   0  0  0  0  0  0
    5.9230    4.7554   23.7660 C   0  0  0  0  0  0
    4.9203    5.2404   22.9266 C   0  0  0  0  0  0
    5.0722    6.4793   22.3079 C   0  0  0  0  0  0
    6.2361    7.2214   22.5018 C   0  0  0  0  0  0
    6.3898    8.4178   21.8891 F   0  0  0  0  0  0
    7.2386    6.7348   23.3391 C   0  0  0  0  0  0
   11.0200    0.3608   22.8751 C   0  0  0  0  0  0
   11.2666   -0.9984   22.5951 C   0  0  0  0  0  0
   12.5436   -1.4574   22.3083 C   0  0  0  0  0  0
   13.5699   -0.5267   22.3111 C   0  0  0  0  0  0
   13.3826    0.8020   22.4751 N   0  0  0  0  0  0
   12.1180    1.2263   22.7109 C   0  0  0  0  0  0
    6.9966   -0.1130   22.1497 C   0  0  0  0  0  0
    6.2110   -0.6871   21.1489 C   0  0  0  0  0  0
    5.1697    0.0750   20.6390 N   0  0  0  0  0  0
    5.2200    0.9768   19.6535 C   0  0  0  0  0  0
    6.2491    1.1781   19.0078 O   0  0  0  0  0  0
    3.8789    1.6837   19.3033 C   0  0  0  0  0  0
    2.8544    1.7200   20.4929 C   0  0  0  0  0  0
    1.6001    2.5909   20.2692 C   0  0  0  0  0  0
    1.9621    4.0069   19.8346 C   0  0  0  0  0  0
    2.8670    3.9469   18.6034 C   0  0  0  0  0  0
    4.1546    3.1137   18.8510 C   0  0  0  0  0  0
    4.7695   -2.8530   18.1053 H   0  0  0  0  0  0
    5.4420   -1.2561   18.4133 H   0  0  0  0  0  0
    6.3696   -2.6018   17.9269 H   0  0  0  0  0  0
    7.3193   -3.8831   21.3691 H   0  0  0  0  0  0
    8.7384   -2.8913   23.0641 H   0  0  0  0  0  0
    6.0715   -1.5388   24.9009 H   0  0  0  0  0  0
    5.5835   -3.8015   26.2663 H   0  0  0  0  0  0
    8.0408   -4.5203   27.3424 H   0  0  0  0  0  0
    9.1883    1.2147   22.3543 H   0  0  0  0  0  0
    7.5244    2.1101   24.1473 H   0  0  0  0  0  0
    8.7688    3.5381   26.3866 H   0  0  0  0  0  0
    7.1188    3.4609   25.9284 H   0  0  0  0  0  0
    9.1648    5.1793   24.4506 H   0  0  0  0  0  0
    8.2091    5.7607   25.7715 H   0  0  0  0  0  0
    5.7678    3.7994   24.2382 H   0  0  0  0  0  0
    4.0276    4.6579   22.7485 H   0  0  0  0  0  0
    4.3061    6.8470   21.6408 H   0  0  0  0  0  0
    8.1320    7.3221   23.4866 H   0  0  0  0  0  0
   10.4975   -1.7424   22.6351 H   0  0  0  0  0  0
   12.7388   -2.5115   22.1668 H   0  0  0  0  0  0
   14.5857   -0.8687   22.3074 H   0  0  0  0  0  0
   12.0228    2.2965   22.8159 H   0  0  0  0  0  0
    6.8689    0.9334   22.3895 H   0  0  0  0  0  0
    4.2776   -0.0480   21.1076 H   0  0  0  0  0  0
    3.5696    1.1473   18.4146 H   0  0  0  0  0  0
    2.4417    0.7472   20.7074 H   0  0  0  0  0  0
    3.3313    2.1472   21.3774 H   0  0  0  0  0  0
    0.9518    2.1473   19.5145 H   0  0  0  0  0  0
    1.0052    2.6319   21.1829 H   0  0  0  0  0  0
    1.0605    4.5794   19.6146 H   0  0  0  0  0  0
    2.4718    4.5330   20.6430 H   0  0  0  0  0  0
    2.3034    3.5473   17.7627 H   0  0  0  0  0  0
    3.1244    4.9607   18.3122 H   0  0  0  0  0  0
    4.6588    3.5471   19.7080 H   0  0  0  0  0  0
    4.7593    3.1468   17.9421 H   0  0  0  0  0  0
  1  2  1  0  0  0
  1 45  1  0  0  0
  1 46  1  0  0  0
  1 47  1  0  0  0
  2  3  1  0  0  0
  3 35  2  0  0  0
  3  4  1  0  0  0
  4  5  2  0  0  0
  4 48  1  0  0  0
  5  6  1  0  0  0
  5 49  1  0  0  0
  6  7  1  0  0  0
  6 34  2  0  0  0
  7  8  1  0  0  0
  7 15  1  0  0  0
  8  9  2  0  0  0
  8 10  1  0  0  0
 10 14  1  0  0  0
 10 11  2  0  0  0
 11 12  1  0  0  0
 11 50  1  0  0  0
 12 13  2  0  0  0
 12 51  1  0  0  0
 13 14  1  0  0  0
 13 52  1  0  0  0
 15 16  1  0  0  0
 15 28  1  0  0  0
 15 53  1  0  0  0
 16 17  2  0  0  0
 16 18  1  0  0  0
 18 19  1  0  0  0
 18 54  1  0  0  0
 19 20  1  0  0  0
 19 55  1  0  0  0
 19 56  1  0  0  0
 20 21  1  0  0  0
 20 57  1  0  0  0
 20 58  1  0  0  0
 21 27  2  0  0  0
 21 22  1  0  0  0
 22 23  2  0  0  0
 22 59  1  0  0  0
 23 24  1  0  0  0
 23 60  1  0  0  0
 24 25  2  0  0  0
 24 61  1  0  0  0
 25 26  1  0  0  0
 25 27  1  0  0  0
 27 62  1  0  0  0
 28 33  2  0  0  0
 28 29  1  0  0  0
 29 30  2  0  0  0
 29 63  1  0  0  0
 30 31  1  0  0  0
 30 64  1  0  0  0
 31 32  2  0  0  0
 31 65  1  0  0  0
 32 33  1  0  0  0
 33 66  1  0  0  0
 34 35  1  0  0  0
 34 67  1  0  0  0
 35 36  1  0  0  0
 36 37  1  0  0  0
 36 68  1  0  0  0
 37 38  2  0  0  0
 37 39  1  0  0  0
 39 44  1  0  0  0
 39 40  1  0  0  0
 39 69  1  0  0  0
 40 41  1  0  0  0
 40 70  1  0  0  0
 40 71  1  0  0  0
 41 42  1  0  0  0
 41 72  1  0  0  0
 41 73  1  0  0  0
 42 43  1  0  0  0
 42 74  1  0  0  0
 42 75  1  0  0  0
 43 44  1  0  0  0
 43 76  1  0  0  0
 43 77  1  0  0  0
 44 78  1  0  0  0
 44 79  1  0  0  0
M  END
> <r_i_docking_score>
-4.99931174911188

$$$$
ligprep_5.maegz:261
                    3D
 Schrodinger Suite 2020-4.
 70 75  0  0  1  0            999 V2000
    8.7749   -3.2527   22.7411 O   0  0  0  0  0  0
    8.8863   -3.1261   23.9604 C   0  0  0  0  0  0
    8.5663   -4.0892   24.8384 N   0  0  0  0  0  0
    7.9520   -5.3596   24.4634 C   0  0  0  0  0  0
    6.4081   -5.2793   24.4316 C   0  0  0  0  0  0
    5.7964   -4.8696   25.7662 C   0  0  0  0  0  0
    5.3865   -3.5489   25.9799 C   0  0  0  0  0  0
    4.8550   -3.1681   27.2122 C   0  0  0  0  0  0
    4.7294   -4.1071   28.2367 C   0  0  0  0  0  0
    5.1336   -5.4255   28.0287 C   0  0  0  0  0  0
    5.0141   -6.3329   29.0230 F   0  0  0  0  0  0
    5.6642   -5.8070   26.7968 C   0  0  0  0  0  0
    9.3939   -1.7998   24.5842 C   0  0  1  0  0  0
   10.5197   -1.0586   23.8547 C   0  0  0  0  0  0
   11.3161   -1.6407   22.8499 C   0  0  0  0  0  0
   12.3901   -0.9363   22.3050 C   0  0  0  0  0  0
   12.6549    0.3490   22.7731 C   0  0  0  0  0  0
   11.9275    0.9331   23.7556 N   0  0  0  0  0  0
   10.8940    0.2270   24.2813 C   0  0  0  0  0  0
    8.2174   -0.9093   24.8584 N   0  0  0  0  0  0
    7.7968   -0.7653   26.1628 C   0  0  0  0  0  0
    8.4048   -1.2842   27.1052 O   0  0  0  0  0  0
    6.5982    0.0027   26.4891 C   0  0  0  0  0  0
    5.4482    0.3811   25.7855 C   0  0  0  0  0  0
    4.6019    1.0321   26.6832 C   0  0  0  0  0  0
    5.2350    0.9907   27.9102 C   0  0  0  0  0  0
    6.4248    0.3495   27.7971 O   0  0  0  0  0  0
    7.5815   -0.2637   23.7695 C   0  0  0  0  0  0
    6.7705   -1.0060   22.9044 C   0  0  0  0  0  0
    6.1768   -0.3955   21.8120 C   0  0  0  0  0  0
    6.3192    0.9759   21.6251 C   0  0  0  0  0  0
    5.5035    1.6147   20.5710 C   0  0  0  0  0  0
    5.6982    1.3585   19.2935 N   0  0  0  0  0  0
    4.7694    2.0846   18.6662 N   0  0  0  0  0  0
    3.9327    2.7470   19.5170 C   0  0  0  0  0  0
    4.4246    2.4906   20.7764 C   0  0  0  0  0  0
    3.7567    3.1103   21.9907 C   0  0  0  0  0  0
    2.4565    3.6073   21.6345 O   0  0  0  0  0  0
    2.4524    4.4679   20.4856 C   0  0  0  0  0  0
    2.7794    3.6776   19.1923 C   0  0  0  0  0  0
    7.1234    1.7298   22.4813 C   0  0  0  0  0  0
    7.7747    1.1056   23.5433 C   0  0  0  0  0  0
    8.6946   -3.9154   25.8255 H   0  0  0  0  0  0
    8.3651   -5.7783   23.5420 H   0  0  0  0  0  0
    8.2452   -6.0504   25.2581 H   0  0  0  0  0  0
    6.0976   -4.5803   23.6529 H   0  0  0  0  0  0
    5.9736   -6.2299   24.1178 H   0  0  0  0  0  0
    5.4901   -2.8114   25.1970 H   0  0  0  0  0  0
    4.5479   -2.1451   27.3747 H   0  0  0  0  0  0
    4.3218   -3.8168   29.1934 H   0  0  0  0  0  0
    5.9820   -6.8303   26.6561 H   0  0  0  0  0  0
    9.8547   -2.1235   25.5075 H   0  0  0  0  0  0
   11.1361   -2.6424   22.4883 H   0  0  0  0  0  0
   12.9957   -1.3795   21.5282 H   0  0  0  0  0  0
   13.4715    0.9298   22.3687 H   0  0  0  0  0  0
   10.3702    0.7131   25.0913 H   0  0  0  0  0  0
    5.2236    0.2119   24.7430 H   0  0  0  0  0  0
    3.6363    1.4649   26.4668 H   0  0  0  0  0  0
    4.9729    1.3433   28.8972 H   0  0  0  0  0  0
    6.5799   -2.0541   23.0712 H   0  0  0  0  0  0
    5.5369   -0.9712   21.1592 H   0  0  0  0  0  0
    4.6706    2.0981   17.6586 H   0  0  0  0  0  0
    3.6557    2.3799   22.7941 H   0  0  0  0  0  0
    4.3613    3.9332   22.3747 H   0  0  0  0  0  0
    1.4799    4.9521   20.3949 H   0  0  0  0  0  0
    3.1697    5.2772   20.6323 H   0  0  0  0  0  0
    3.0076    4.3505   18.3656 H   0  0  0  0  0  0
    1.8934    3.1274   18.8857 H   0  0  0  0  0  0
    7.2268    2.7950   22.3319 H   0  0  0  0  0  0
    8.3933    1.6923   24.2058 H   0  0  0  0  0  0
  1  2  2  0  0  0
  2  3  1  0  0  0
  2 13  1  0  0  0
  3  4  1  0  0  0
  3 43  1  0  0  0
  4  5  1  0  0  0
  4 44  1  0  0  0
  4 45  1  0  0  0
  5  6  1  0  0  0
  5 46  1  0  0  0
  5 47  1  0  0  0
  6 12  2  0  0  0
  6  7  1  0  0  0
  7  8  2  0  0  0
  7 48  1  0  0  0
  8  9  1  0  0  0
  8 49  1  0  0  0
  9 10  2  0  0  0
  9 50  1  0  0  0
 10 11  1  0  0  0
 10 12  1  0  0  0
 12 51  1  0  0  0
 13 14  1  0  0  0
 13 20  1  0  0  0
 13 52  1  0  0  0
 14 19  2  0  0  0
 14 15  1  0  0  0
 15 16  2  0  0  0
 15 53  1  0  0  0
 16 17  1  0  0  0
 16 54  1  0  0  0
 17 18  2  0  0  0
 17 55  1  0  0  0
 18 19  1  0  0  0
 19 56  1  0  0  0
 20 21  1  0  0  0
 20 28  1  0  0  0
 21 22  2  0  0  0
 21 23  1  0  0  0
 23 27  1  0  0  0
 23 24  2  0  0  0
 24 25  1  0  0  0
 24 57  1  0  0  0
 25 26  2  0  0  0
 25 58  1  0  0  0
 26 27  1  0  0  0
 26 59  1  0  0  0
 28 42  2  0  0  0
 28 29  1  0  0  0
 29 30  2  0  0  0
 29 60  1  0  0  0
 30 31  1  0  0  0
 30 61  1  0  0  0
 31 32  1  0  0  0
 31 41  2  0  0  0
 32 36  1  0  0  0
 32 33  2  0  0  0
 33 34  1  0  0  0
 34 35  1  0  0  0
 34 62  1  0  0  0
 35 40  1  0  0  0
 35 36  2  0  0  0
 36 37  1  0  0  0
 37 38  1  0  0  0
 37 63  1  0  0  0
 37 64  1  0  0  0
 38 39  1  0  0  0
 39 40  1  0  0  0
 39 65  1  0  0  0
 39 66  1  0  0  0
 40 67  1  0  0  0
 40 68  1  0  0  0
 41 42  1  0  0  0
 41 69  1  0  0  0
 42 70  1  0  0  0
M  END
> <r_i_docking_score>
-3.21430046533102

$$$$
ligprep_5.maegz:262
                    3D
 Schrodinger Suite 2020-4.
 68 71  0  0  1  0            999 V2000
    0.0810    2.3796   21.5544 C   0  0  0  0  0  0
    1.1473    3.2759   21.8319 O   0  0  0  0  0  0
    2.3131    3.1726   21.1628 C   0  0  0  0  0  0
    2.5712    2.3323   20.2989 O   0  0  0  0  0  0
    3.3271    4.2351   21.6034 C   0  0  0  0  0  0
    4.8047    3.8093   21.5075 C   0  0  0  0  0  0
    5.3293    2.4747   22.6210 S   0  0  0  0  0  0
    6.3358    1.3751   21.6599 C   0  0  0  0  0  0
    5.8510    0.9256   20.4282 C   0  0  0  0  0  0
    6.5819    0.0144   19.6718 C   0  0  0  0  0  0
    5.9692   -0.5488   18.1641 Cl  0  0  0  0  0  0
    7.8055   -0.4529   20.1400 C   0  0  0  0  0  0
    8.2990   -0.0201   21.3668 C   0  0  0  0  0  0
    7.5659    0.8863   22.1449 C   0  0  0  0  0  0
    8.1121    1.3252   23.3711 N   0  0  0  0  0  0
    8.0626    0.5436   24.5068 C   0  0  0  0  0  0
    8.7185    0.8297   25.5095 O   0  0  0  0  0  0
    7.2602   -0.6743   24.5568 C   0  0  0  0  0  0
    6.1082   -1.1196   23.9004 C   0  0  0  0  0  0
    5.7566   -2.3502   24.4549 C   0  0  0  0  0  0
    6.6659   -2.5905   25.4687 C   0  0  0  0  0  0
    7.5535   -1.5671   25.5478 O   0  0  0  0  0  0
    8.9733    2.5564   23.2937 C   0  0  1  0  0  0
    8.6655    3.6417   24.3749 C   0  0  0  0  0  0
    9.5706    4.1563   25.0307 O   0  0  0  0  0  0
    7.3770    3.9612   24.5657 N   0  0  0  0  0  0
    6.9165    4.9291   25.5596 C   0  0  0  0  0  0
    7.2297    6.4042   25.2202 C   0  0  0  0  0  0
    6.5968    6.8952   23.9261 C   0  0  0  0  0  0
    7.2663    6.7445   22.7065 C   0  0  0  0  0  0
    6.6679    7.1761   21.5229 C   0  0  0  0  0  0
    5.4075    7.7706   21.5516 C   0  0  0  0  0  0
    4.7382    7.9265   22.7646 C   0  0  0  0  0  0
    3.5101    8.4919   22.7933 F   0  0  0  0  0  0
    5.3311    7.4901   23.9488 C   0  0  0  0  0  0
   10.4710    2.2672   23.1129 C   0  0  0  0  0  0
   11.3285    3.3098   22.7224 C   0  0  0  0  0  0
   12.6884    3.0792   22.5208 C   0  0  0  0  0  0
   13.1700    1.7850   22.7047 C   0  0  0  0  0  0
   12.3811    0.7492   23.0747 N   0  0  0  0  0  0
   11.0622    0.9995   23.2710 C   0  0  0  0  0  0
   -0.7794    2.6251   22.1777 H   0  0  0  0  0  0
   -0.2274    2.4461   20.5091 H   0  0  0  0  0  0
    0.3700    1.3481   21.7667 H   0  0  0  0  0  0
    3.1017    4.5692   22.6161 H   0  0  0  0  0  0
    3.1774    5.0993   20.9556 H   0  0  0  0  0  0
    5.4353    4.6694   21.7246 H   0  0  0  0  0  0
    5.0434    3.5449   20.4767 H   0  0  0  0  0  0
    4.8927    1.2625   20.0620 H   0  0  0  0  0  0
    8.3751   -1.1585   19.5524 H   0  0  0  0  0  0
    9.2490   -0.4028   21.7063 H   0  0  0  0  0  0
    5.5593   -0.6235   23.1143 H   0  0  0  0  0  0
    4.9228   -2.9756   24.1693 H   0  0  0  0  0  0
    6.7890   -3.3880   26.1880 H   0  0  0  0  0  0
    8.6877    3.0373   22.3558 H   0  0  0  0  0  0
    6.6722    3.5034   24.0000 H   0  0  0  0  0  0
    7.2421    4.6713   26.5696 H   0  0  0  0  0  0
    5.8323    4.8094   25.5588 H   0  0  0  0  0  0
    8.3090    6.5581   25.1760 H   0  0  0  0  0  0
    6.9074    7.0434   26.0437 H   0  0  0  0  0  0
    8.2376    6.2727   22.6683 H   0  0  0  0  0  0
    7.1538    7.0208   20.5734 H   0  0  0  0  0  0
    4.9401    8.0836   20.6294 H   0  0  0  0  0  0
    4.8001    7.6131   24.8806 H   0  0  0  0  0  0
   10.9373    4.3077   22.5923 H   0  0  0  0  0  0
   13.3485    3.8819   22.2279 H   0  0  0  0  0  0
   14.2153    1.5619   22.5509 H   0  0  0  0  0  0
   10.4977    0.1321   23.5704 H   0  0  0  0  0  0
  1  2  1  0  0  0
  1 42  1  0  0  0
  1 43  1  0  0  0
  1 44  1  0  0  0
  2  3  1  0  0  0
  3  4  2  0  0  0
  3  5  1  0  0  0
  5  6  1  0  0  0
  5 45  1  0  0  0
  5 46  1  0  0  0
  6  7  1  0  0  0
  6 47  1  0  0  0
  6 48  1  0  0  0
  7  8  1  0  0  0
  8 14  2  0  0  0
  8  9  1  0  0  0
  9 10  2  0  0  0
  9 49  1  0  0  0
 10 11  1  0  0  0
 10 12  1  0  0  0
 12 13  2  0  0  0
 12 50  1  0  0  0
 13 14  1  0  0  0
 13 51  1  0  0  0
 14 15  1  0  0  0
 15 16  1  0  0  0
 15 23  1  0  0  0
 16 17  2  0  0  0
 16 18  1  0  0  0
 18 22  1  0  0  0
 18 19  2  0  0  0
 19 20  1  0  0  0
 19 52  1  0  0  0
 20 21  2  0  0  0
 20 53  1  0  0  0
 21 22  1  0  0  0
 21 54  1  0  0  0
 23 24  1  0  0  0
 23 36  1  0  0  0
 23 55  1  0  0  0
 24 25  2  0  0  0
 24 26  1  0  0  0
 26 27  1  0  0  0
 26 56  1  0  0  0
 27 28  1  0  0  0
 27 57  1  0  0  0
 27 58  1  0  0  0
 28 29  1  0  0  0
 28 59  1  0  0  0
 28 60  1  0  0  0
 29 35  2  0  0  0
 29 30  1  0  0  0
 30 31  2  0  0  0
 30 61  1  0  0  0
 31 32  1  0  0  0
 31 62  1  0  0  0
 32 33  2  0  0  0
 32 63  1  0  0  0
 33 34  1  0  0  0
 33 35  1  0  0  0
 35 64  1  0  0  0
 36 41  2  0  0  0
 36 37  1  0  0  0
 37 38  2  0  0  0
 37 65  1  0  0  0
 38 39  1  0  0  0
 38 66  1  0  0  0
 39 40  2  0  0  0
 39 67  1  0  0  0
 40 41  1  0  0  0
 41 68  1  0  0  0
M  END
> <r_i_docking_score>
-4.35444932633887

$$$$
ligprep_5.maegz:264
                    3D
 Schrodinger Suite 2020-4.
 59 62  0  0  1  0            999 V2000
    7.1816   -5.8812   22.4691 C   0  0  0  0  0  0
    7.6106   -5.2053   23.6483 O   0  0  0  0  0  0
    8.0490   -3.8979   23.5517 C   0  0  0  0  0  0
    7.9702   -3.1273   22.3819 C   0  0  0  0  0  0
    8.4541   -1.8224   22.3608 C   0  0  0  0  0  0
    9.0142   -1.2733   23.5154 C   0  0  0  0  0  0
    9.4645    0.0698   23.4942 N   0  0  0  0  0  0
   10.8047    0.2485   23.1945 C   0  0  0  0  0  0
   11.5719   -0.7045   23.0035 O   0  0  0  0  0  0
   11.4097    1.5719   23.0663 C   0  0  0  0  0  0
   12.7291    1.9035   22.7517 C   0  0  0  0  0  0
   12.8211    3.2943   22.7065 C   0  0  0  0  0  0
   11.5563    3.7673   22.9942 C   0  0  0  0  0  0
   10.7097    2.7295   23.2088 O   0  0  0  0  0  0
    8.4930    1.1550   23.8734 C   0  0  1  0  0  0
    7.8712    1.8936   22.6417 C   0  0  0  0  0  0
    8.4196    1.8289   21.5386 O   0  0  0  0  0  0
    6.7434    2.5981   22.8606 N   0  0  0  0  0  0
    6.0305    3.4340   21.8880 C   0  0  0  0  0  0
    4.8250    2.7476   21.2099 C   0  0  0  0  0  0
    5.1970    1.6735   20.1969 C   0  0  0  0  0  0
    5.1696    1.9471   18.8280 C   0  0  0  0  0  0
    5.5710    0.9794   17.9083 C   0  0  0  0  0  0
    5.9699   -0.2823   18.3494 C   0  0  0  0  0  0
    5.9402   -0.5780   19.7099 C   0  0  0  0  0  0
    6.2350   -1.8186   20.1485 F   0  0  0  0  0  0
    5.5710    0.4005   20.6255 C   0  0  0  0  0  0
    7.4468    0.7083   24.8991 C   0  0  0  0  0  0
    7.5565    1.1206   26.2339 C   0  0  0  0  0  0
    6.6141    0.7113   27.1786 C   0  0  0  0  0  0
    5.5636   -0.1034   26.7580 C   0  0  0  0  0  0
    5.4190   -0.5123   25.4738 N   0  0  0  0  0  0
    6.3487   -0.1057   24.5724 C   0  0  0  0  0  0
    9.0948   -2.0312   24.6881 C   0  0  0  0  0  0
    8.6105   -3.3373   24.7002 C   0  0  0  0  0  0
    6.9280   -6.9137   22.7091 H   0  0  0  0  0  0
    7.9684   -5.9052   21.7134 H   0  0  0  0  0  0
    6.2911   -5.4170   22.0433 H   0  0  0  0  0  0
    7.5435   -3.5287   21.4775 H   0  0  0  0  0  0
    8.3914   -1.2382   21.4530 H   0  0  0  0  0  0
   13.5328    1.2057   22.5658 H   0  0  0  0  0  0
   13.7026    3.8787   22.4851 H   0  0  0  0  0  0
   11.1234    4.7546   23.0566 H   0  0  0  0  0  0
    9.0494    1.9267   24.3975 H   0  0  0  0  0  0
    6.3640    2.5887   23.7962 H   0  0  0  0  0  0
    5.7205    4.3752   22.3434 H   0  0  0  0  0  0
    6.7280    3.7403   21.1081 H   0  0  0  0  0  0
    4.1572    2.3255   21.9620 H   0  0  0  0  0  0
    4.2253    3.5097   20.7090 H   0  0  0  0  0  0
    4.8634    2.9215   18.4719 H   0  0  0  0  0  0
    5.5762    1.2160   16.8555 H   0  0  0  0  0  0
    6.2736   -1.0359   17.6378 H   0  0  0  0  0  0
    5.5691    0.1652   21.6745 H   0  0  0  0  0  0
    8.3696    1.7557   26.5483 H   0  0  0  0  0  0
    6.6989    1.0188   28.2105 H   0  0  0  0  0  0
    4.8131   -0.4424   27.4568 H   0  0  0  0  0  0
    6.2138   -0.4797   23.5708 H   0  0  0  0  0  0
    9.5180   -1.6019   25.5837 H   0  0  0  0  0  0
    8.6740   -3.9241   25.6044 H   0  0  0  0  0  0
  1  2  1  0  0  0
  1 36  1  0  0  0
  1 37  1  0  0  0
  1 38  1  0  0  0
  2  3  1  0  0  0
  3 35  2  0  0  0
  3  4  1  0  0  0
  4  5  2  0  0  0
  4 39  1  0  0  0
  5  6  1  0  0  0
  5 40  1  0  0  0
  6  7  1  0  0  0
  6 34  2  0  0  0
  7  8  1  0  0  0
  7 15  1  0  0  0
  8  9  2  0  0  0
  8 10  1  0  0  0
 10 14  1  0  0  0
 10 11  2  0  0  0
 11 12  1  0  0  0
 11 41  1  0  0  0
 12 13  2  0  0  0
 12 42  1  0  0  0
 13 14  1  0  0  0
 13 43  1  0  0  0
 15 16  1  0  0  0
 15 28  1  0  0  0
 15 44  1  0  0  0
 16 17  2  0  0  0
 16 18  1  0  0  0
 18 19  1  0  0  0
 18 45  1  0  0  0
 19 20  1  0  0  0
 19 46  1  0  0  0
 19 47  1  0  0  0
 20 21  1  0  0  0
 20 48  1  0  0  0
 20 49  1  0  0  0
 21 27  2  0  0  0
 21 22  1  0  0  0
 22 23  2  0  0  0
 22 50  1  0  0  0
 23 24  1  0  0  0
 23 51  1  0  0  0
 24 25  2  0  0  0
 24 52  1  0  0  0
 25 26  1  0  0  0
 25 27  1  0  0  0
 27 53  1  0  0  0
 28 33  2  0  0  0
 28 29  1  0  0  0
 29 30  2  0  0  0
 29 54  1  0  0  0
 30 31  1  0  0  0
 30 55  1  0  0  0
 31 32  2  0  0  0
 31 56  1  0  0  0
 32 33  1  0  0  0
 33 57  1  0  0  0
 34 35  1  0  0  0
 34 58  1  0  0  0
 35 59  1  0  0  0
M  END
> <r_i_docking_score>
-4.06021980155914

$$$$
ligprep_5.maegz:265
                    3D
 Schrodinger Suite 2020-4.
 60 63  0  0  1  0            999 V2000
   12.6839   -2.4021   22.1243 C   0  0  0  0  0  0
   12.5554   -0.8885   22.3080 C   0  0  0  0  0  0
   13.5696   -0.2468   22.5862 O   0  0  0  0  0  0
   11.1881   -0.2826   22.2321 C   0  0  0  0  0  0
   10.9783    1.0188   22.7060 C   0  0  0  0  0  0
    9.7209    1.6098   22.6161 C   0  0  0  0  0  0
    8.6379    0.9056   22.0709 C   0  0  0  0  0  0
    7.3323    1.4998   22.0180 N   0  0  0  0  0  0
    6.7105    1.5347   20.7752 C   0  0  0  0  0  0
    7.2714    1.1430   19.7456 O   0  0  0  0  0  0
    5.3545    2.0400   20.5868 C   0  0  0  0  0  0
    4.6540    2.2469   19.3975 C   0  0  0  0  0  0
    3.3934    2.7415   19.7251 C   0  0  0  0  0  0
    3.3501    2.7835   21.1047 C   0  0  0  0  0  0
    4.5264    2.3473   21.6221 O   0  0  0  0  0  0
    6.8004    2.2462   23.2199 C   0  0  1  0  0  0
    7.3341    1.8333   24.6312 C   0  0  0  0  0  0
    7.8533    2.6798   25.3621 O   0  0  0  0  0  0
    7.1905    0.5475   25.0011 N   0  0  0  0  0  0
    7.4999    0.0587   26.3503 C   0  0  0  0  0  0
    8.6815   -0.9298   26.4304 C   0  0  0  0  0  0
    8.4314   -2.2610   25.7321 C   0  0  0  0  0  0
    8.6272   -2.3699   24.3598 C   0  0  0  0  0  0
    8.3913   -3.5728   23.6917 C   0  0  0  0  0  0
    7.9644   -4.6892   24.4112 C   0  0  0  0  0  0
    7.7769   -4.5936   25.7898 C   0  0  0  0  0  0
    7.3580   -5.6626   26.4978 F   0  0  0  0  0  0
    8.0144   -3.3861   26.4450 C   0  0  0  0  0  0
    6.7491    3.7618   23.0113 C   0  0  0  0  0  0
    7.5695    4.4484   22.1017 C   0  0  0  0  0  0
    7.4322    5.8246   21.9242 C   0  0  0  0  0  0
    6.4706    6.4963   22.6765 C   0  0  0  0  0  0
    5.6722    5.8701   23.5769 N   0  0  0  0  0  0
    5.8180    4.5284   23.7266 C   0  0  0  0  0  0
    8.8572   -0.3903   21.5770 C   0  0  0  0  0  0
   10.1200   -0.9712   21.6457 C   0  0  0  0  0  0
   12.3956   -2.6894   21.1129 H   0  0  0  0  0  0
   12.0190   -2.9153   22.8205 H   0  0  0  0  0  0
   13.7053   -2.7370   22.3078 H   0  0  0  0  0  0
   11.7864    1.5882   23.1430 H   0  0  0  0  0  0
    9.5926    2.6137   22.9936 H   0  0  0  0  0  0
    5.0275    2.0860   18.3949 H   0  0  0  0  0  0
    2.6197    3.0400   19.0324 H   0  0  0  0  0  0
    2.5999    3.0913   21.8180 H   0  0  0  0  0  0
    5.7881    1.8706   23.3503 H   0  0  0  0  0  0
    6.7631   -0.1056   24.3603 H   0  0  0  0  0  0
    7.6080    0.8430   27.1039 H   0  0  0  0  0  0
    6.6007   -0.4781   26.6555 H   0  0  0  0  0  0
    9.5830   -0.4606   26.0313 H   0  0  0  0  0  0
    8.9316   -1.1113   27.4771 H   0  0  0  0  0  0
    8.9624   -1.4982   23.8320 H   0  0  0  0  0  0
    8.5475   -3.6422   22.6245 H   0  0  0  0  0  0
    7.7835   -5.6265   23.9049 H   0  0  0  0  0  0
    7.8725   -3.3357   27.5079 H   0  0  0  0  0  0
    8.3048    3.9274   21.5090 H   0  0  0  0  0  0
    8.0422    6.3465   21.2018 H   0  0  0  0  0  0
    6.3234    7.5592   22.5576 H   0  0  0  0  0  0
    5.1543    4.0615   24.4397 H   0  0  0  0  0  0
    8.0497   -0.9579   21.1373 H   0  0  0  0  0  0
   10.2431   -1.9655   21.2382 H   0  0  0  0  0  0
  1  2  1  0  0  0
  1 37  1  0  0  0
  1 38  1  0  0  0
  1 39  1  0  0  0
  2  3  2  0  0  0
  2  4  1  0  0  0
  4 36  2  0  0  0
  4  5  1  0  0  0
  5  6  2  0  0  0
  5 40  1  0  0  0
  6  7  1  0  0  0
  6 41  1  0  0  0
  7  8  1  0  0  0
  7 35  2  0  0  0
  8  9  1  0  0  0
  8 16  1  0  0  0
  9 10  2  0  0  0
  9 11  1  0  0  0
 11 15  1  0  0  0
 11 12  2  0  0  0
 12 13  1  0  0  0
 12 42  1  0  0  0
 13 14  2  0  0  0
 13 43  1  0  0  0
 14 15  1  0  0  0
 14 44  1  0  0  0
 16 17  1  0  0  0
 16 29  1  0  0  0
 16 45  1  0  0  0
 17 18  2  0  0  0
 17 19  1  0  0  0
 19 20  1  0  0  0
 19 46  1  0  0  0
 20 21  1  0  0  0
 20 47  1  0  0  0
 20 48  1  0  0  0
 21 22  1  0  0  0
 21 49  1  0  0  0
 21 50  1  0  0  0
 22 28  2  0  0  0
 22 23  1  0  0  0
 23 24  2  0  0  0
 23 51  1  0  0  0
 24 25  1  0  0  0
 24 52  1  0  0  0
 25 26  2  0  0  0
 25 53  1  0  0  0
 26 27  1  0  0  0
 26 28  1  0  0  0
 28 54  1  0  0  0
 29 34  2  0  0  0
 29 30  1  0  0  0
 30 31  2  0  0  0
 30 55  1  0  0  0
 31 32  1  0  0  0
 31 56  1  0  0  0
 32 33  2  0  0  0
 32 57  1  0  0  0
 33 34  1  0  0  0
 34 58  1  0  0  0
 35 36  1  0  0  0
 35 59  1  0  0  0
 36 60  1  0  0  0
M  END
> <r_i_docking_score>
-4.42764248289143

$$$$
ligprep_5.maegz:266
                    3D
 Schrodinger Suite 2020-4.
 56 59  0  0  1  0            999 V2000
    6.4707    6.8962   24.0640 N   0  0  0  0  0  0
    6.7578    5.8021   23.8124 C   0  0  0  0  0  0
    7.1221    4.4273   23.4975 C   0  0  0  0  0  0
    6.3537    3.3686   23.9908 C   0  0  0  0  0  0
    6.7105    2.0565   23.6916 C   0  0  0  0  0  0
    7.8240    1.8088   22.8835 C   0  0  0  0  0  0
    8.2189    0.4859   22.6348 N   0  0  0  0  0  0
    7.8246   -0.2160   21.5151 C   0  0  0  0  0  0
    8.1798   -1.3833   21.3387 O   0  0  0  0  0  0
    6.9763    0.3824   20.4829 C   0  0  0  0  0  0
    6.1293    1.4957   20.4083 C   0  0  0  0  0  0
    5.5309    1.4888   19.1466 C   0  0  0  0  0  0
    6.0047    0.3659   18.4980 C   0  0  0  0  0  0
    6.8550   -0.3100   19.3116 O   0  0  0  0  0  0
    9.1357   -0.1060   23.6579 C   0  0  1  0  0  0
    8.4807   -1.2148   24.5299 C   0  0  0  0  0  0
    7.3889   -0.9774   25.0477 O   0  0  0  0  0  0
    9.1696   -2.3478   24.7523 N   0  0  0  0  0  0
    8.7845   -3.4306   25.6621 C   0  0  0  0  0  0
    7.3800   -4.0430   25.4449 C   0  0  0  0  0  0
    7.0661   -4.4522   24.0119 C   0  0  0  0  0  0
    7.5693   -5.6487   23.4949 C   0  0  0  0  0  0
    7.2287   -6.0572   22.2072 C   0  0  0  0  0  0
    6.4114   -5.2545   21.4137 C   0  0  0  0  0  0
    5.9427   -4.0407   21.9088 C   0  0  0  0  0  0
    5.1712   -3.2530   21.1306 F   0  0  0  0  0  0
    6.2544   -3.6457   23.2082 C   0  0  0  0  0  0
   10.5476   -0.3345   23.1245 C   0  0  0  0  0  0
   10.9668   -1.5100   22.4781 C   0  0  0  0  0  0
   12.2930   -1.6490   22.0701 C   0  0  0  0  0  0
   13.1741   -0.5952   22.3068 C   0  0  0  0  0  0
   12.8005    0.5571   22.9168 N   0  0  0  0  0  0
   11.5078    0.6695   23.3124 C   0  0  0  0  0  0
    8.6012    2.8642   22.4016 C   0  0  0  0  0  0
    8.2461    4.1753   22.7079 C   0  0  0  0  0  0
    5.4848    3.5515   24.6074 H   0  0  0  0  0  0
    6.1227    1.2363   24.0810 H   0  0  0  0  0  0
    5.9397    2.2433   21.1623 H   0  0  0  0  0  0
    4.8345    2.2185   18.7555 H   0  0  0  0  0  0
    5.8380   -0.0597   17.5179 H   0  0  0  0  0  0
    9.2665    0.6568   24.4281 H   0  0  0  0  0  0
   10.0636   -2.4454   24.2946 H   0  0  0  0  0  0
    9.5301   -4.2017   25.4614 H   0  0  0  0  0  0
    8.9095   -3.0992   26.6945 H   0  0  0  0  0  0
    7.2576   -4.9098   26.0960 H   0  0  0  0  0  0
    6.6174   -3.3442   25.7895 H   0  0  0  0  0  0
    8.2447   -6.2492   24.0854 H   0  0  0  0  0  0
    7.6100   -6.9915   21.8278 H   0  0  0  0  0  0
    6.1592   -5.5597   20.4103 H   0  0  0  0  0  0
    5.8686   -2.7088   23.5834 H   0  0  0  0  0  0
   10.2789   -2.3215   22.2851 H   0  0  0  0  0  0
   12.6189   -2.5500   21.5696 H   0  0  0  0  0  0
   14.2067   -0.6637   22.0018 H   0  0  0  0  0  0
   11.2507    1.5972   23.8025 H   0  0  0  0  0  0
    9.4756    2.6790   21.7944 H   0  0  0  0  0  0
    8.8475    4.9855   22.3179 H   0  0  0  0  0  0
  1  2  3  0  0  0
  2  3  1  0  0  0
  3 35  2  0  0  0
  3  4  1  0  0  0
  4  5  2  0  0  0
  4 36  1  0  0  0
  5  6  1  0  0  0
  5 37  1  0  0  0
  6  7  1  0  0  0
  6 34  2  0  0  0
  7  8  1  0  0  0
  7 15  1  0  0  0
  8  9  2  0  0  0
  8 10  1  0  0  0
 10 14  1  0  0  0
 10 11  2  0  0  0
 11 12  1  0  0  0
 11 38  1  0  0  0
 12 13  2  0  0  0
 12 39  1  0  0  0
 13 14  1  0  0  0
 13 40  1  0  0  0
 15 16  1  0  0  0
 15 28  1  0  0  0
 15 41  1  0  0  0
 16 17  2  0  0  0
 16 18  1  0  0  0
 18 19  1  0  0  0
 18 42  1  0  0  0
 19 20  1  0  0  0
 19 43  1  0  0  0
 19 44  1  0  0  0
 20 21  1  0  0  0
 20 45  1  0  0  0
 20 46  1  0  0  0
 21 27  2  0  0  0
 21 22  1  0  0  0
 22 23  2  0  0  0
 22 47  1  0  0  0
 23 24  1  0  0  0
 23 48  1  0  0  0
 24 25  2  0  0  0
 24 49  1  0  0  0
 25 26  1  0  0  0
 25 27  1  0  0  0
 27 50  1  0  0  0
 28 33  2  0  0  0
 28 29  1  0  0  0
 29 30  2  0  0  0
 29 51  1  0  0  0
 30 31  1  0  0  0
 30 52  1  0  0  0
 31 32  2  0  0  0
 31 53  1  0  0  0
 32 33  1  0  0  0
 33 54  1  0  0  0
 34 35  1  0  0  0
 34 55  1  0  0  0
 35 56  1  0  0  0
M  END
> <r_i_docking_score>
-3.98762877774544

$$$$
ligprep_5.maegz:268
                    3D
 Schrodinger Suite 2020-4.
 37 39  0  0  1  0            999 V2000
   10.8400    5.0380   23.6001 N   0  0  0  0  0  0
   11.5489    3.8764   23.2890 C   0  0  0  0  0  0
   12.7579    3.9956   22.6087 C   0  0  0  0  0  0
   13.5388    2.9367   22.3080 N   0  0  0  0  0  0
   13.1021    1.7122   22.6832 C   0  0  0  0  0  0
   11.8541    1.4645   23.2898 C   0  0  0  0  0  0
   11.0820    2.5987   23.6566 C   0  0  0  0  0  0
    9.7826    2.4243   24.4538 C   0  0  0  0  0  0
    9.2763    0.9756   24.4367 C   0  0  0  0  0  0
   10.4183   -0.0175   24.7150 C   0  0  0  0  0  0
   11.4061    0.1420   23.6225 N   0  0  0  0  0  0
   11.6021   -0.9187   22.7683 C   0  0  0  0  0  0
   12.4828   -0.9447   21.9079 O   0  0  0  0  0  0
   10.7195   -2.1862   22.8401 C   0  0  0  0  0  0
    9.2439   -1.9380   22.5197 C   0  0  0  0  0  0
    8.2447   -2.4488   23.3553 C   0  0  0  0  0  0
    6.8984   -2.2028   23.0769 C   0  0  0  0  0  0
    6.5414   -1.4536   21.9551 C   0  0  0  0  0  0
    7.5302   -0.9643   21.1023 C   0  0  0  0  0  0
    7.1003   -0.0514   19.7016 Cl  0  0  0  0  0  0
    8.8731   -1.2181   21.3781 C   0  0  0  0  0  0
    9.8923    4.9316   23.9299 H   0  0  0  0  0  0
   11.1104    5.8962   23.1442 H   0  0  0  0  0  0
   13.1375    4.9617   22.3109 H   0  0  0  0  0  0
   13.7969    0.9206   22.4533 H   0  0  0  0  0  0
    9.9685    2.7201   25.4864 H   0  0  0  0  0  0
    9.0009    3.0851   24.0771 H   0  0  0  0  0  0
    8.7952    0.7493   23.4842 H   0  0  0  0  0  0
    8.5000    0.8587   25.1935 H   0  0  0  0  0  0
   10.0705   -1.0268   24.9272 H   0  0  0  0  0  0
   10.8854    0.3476   25.6278 H   0  0  0  0  0  0
   11.0795   -2.8751   22.0774 H   0  0  0  0  0  0
   10.8648   -2.6998   23.7909 H   0  0  0  0  0  0
    8.5079   -3.0250   24.2303 H   0  0  0  0  0  0
    6.1322   -2.5859   23.7339 H   0  0  0  0  0  0
    5.5006   -1.2524   21.7464 H   0  0  0  0  0  0
    9.6347   -0.8493   20.7088 H   0  0  0  0  0  0
  1  2  1  0  0  0
  1 22  1  0  0  0
  1 23  1  0  0  0
  2  7  2  0  0  0
  2  3  1  0  0  0
  3  4  2  0  0  0
  3 24  1  0  0  0
  4  5  1  0  0  0
  5  6  2  0  0  0
  5 25  1  0  0  0
  6 11  1  0  0  0
  6  7  1  0  0  0
  7  8  1  0  0  0
  8  9  1  0  0  0
  8 26  1  0  0  0
  8 27  1  0  0  0
  9 10  1  0  0  0
  9 28  1  0  0  0
  9 29  1  0  0  0
 10 11  1  0  0  0
 10 30  1  0  0  0
 10 31  1  0  0  0
 11 12  1  0  0  0
 12 13  2  0  0  0
 12 14  1  0  0  0
 14 15  1  0  0  0
 14 32  1  0  0  0
 14 33  1  0  0  0
 15 21  2  0  0  0
 15 16  1  0  0  0
 16 17  2  0  0  0
 16 34  1  0  0  0
 17 18  1  0  0  0
 17 35  1  0  0  0
 18 19  2  0  0  0
 18 36  1  0  0  0
 19 20  1  0  0  0
 19 21  1  0  0  0
 21 37  1  0  0  0
M  END
> <r_i_docking_score>
-5.99624732063009

$$$$
ligprep_5.maegz:269
                    3D
 Schrodinger Suite 2020-4.
 41 45  0  0  1  0            999 V2000
    7.3234   -2.8914   22.2476 O   0  0  0  0  0  0
    8.0285   -2.0750   22.8375 C   0  0  0  0  0  0
    8.4109   -0.8820   22.3669 N   0  0  0  0  0  0
    9.1848   -0.0982   23.2930 C   0  0  2  0  0  0
    8.5926    1.3153   23.5350 C   0  0  0  0  0  0
    9.5616    2.2047   24.3398 C   0  0  0  0  0  0
   10.7917    2.3635   23.6314 O   0  0  0  0  0  0
   11.3823    1.2038   23.1641 C   0  0  0  0  0  0
   12.7387    1.3166   22.8654 C   0  0  0  0  0  0
   13.4235    0.2344   22.3222 C   0  0  0  0  0  0
   12.7522   -0.9609   22.0724 C   0  0  0  0  0  0
   13.5744   -2.3006   21.3682 Cl  0  0  0  0  0  0
   11.3969   -1.0681   22.3648 C   0  0  0  0  0  0
   10.6775    0.0038   22.9217 C   0  0  0  0  0  0
    9.0784   -0.9867   24.5272 C   0  0  0  0  0  0
    9.4605   -0.6971   25.6638 O   0  0  0  0  0  0
    8.4894   -2.1327   24.1168 N   0  0  0  0  0  0
    8.3848   -3.2698   24.9389 C   0  0  0  0  0  0
    9.5153   -4.0791   25.1090 C   0  0  0  0  0  0
    9.5464   -5.1740   25.9032 N   0  0  0  0  0  0
    8.4113   -5.4930   26.5626 C   0  0  0  0  0  0
    7.2013   -4.7707   26.4803 C   0  0  0  0  0  0
    6.0385   -5.1497   27.1943 C   0  0  0  0  0  0
    4.8768   -4.3912   27.0794 C   0  0  0  0  0  0
    4.8429   -3.2623   26.2665 C   0  0  0  0  0  0
    5.9726   -2.8678   25.5524 C   0  0  0  0  0  0
    7.1808   -3.6148   25.6388 C   0  0  0  0  0  0
    8.4591   -0.6846   21.3785 H   0  0  0  0  0  0
    7.6238    1.2657   24.0357 H   0  0  0  0  0  0
    8.4336    1.8144   22.5773 H   0  0  0  0  0  0
    9.7586    1.7849   25.3273 H   0  0  0  0  0  0
    9.1226    3.1908   24.4979 H   0  0  0  0  0  0
   13.2536    2.2497   23.0412 H   0  0  0  0  0  0
   14.4642    0.3459   22.0733 H   0  0  0  0  0  0
   10.9017   -2.0046   22.1521 H   0  0  0  0  0  0
   10.4448   -3.8415   24.6110 H   0  0  0  0  0  0
    8.4642   -6.3721   27.1871 H   0  0  0  0  0  0
    6.0597   -6.0277   27.8254 H   0  0  0  0  0  0
    3.9918   -4.6813   27.6270 H   0  0  0  0  0  0
    3.9331   -2.6854   26.1878 H   0  0  0  0  0  0
    5.9286   -1.9896   24.9251 H   0  0  0  0  0  0
  1  2  2  0  0  0
  2 17  1  0  0  0
  2  3  1  0  0  0
  3  4  1  0  0  0
  3 28  1  0  0  0
  4 14  1  0  0  0
  4  5  1  0  0  0
  4 15  1  0  0  0
  5  6  1  0  0  0
  5 29  1  0  0  0
  5 30  1  0  0  0
  6  7  1  0  0  0
  6 31  1  0  0  0
  6 32  1  0  0  0
  7  8  1  0  0  0
  8 14  2  0  0  0
  8  9  1  0  0  0
  9 10  2  0  0  0
  9 33  1  0  0  0
 10 11  1  0  0  0
 10 34  1  0  0  0
 11 12  1  0  0  0
 11 13  2  0  0  0
 13 14  1  0  0  0
 13 35  1  0  0  0
 15 16  2  0  0  0
 15 17  1  0  0  0
 17 18  1  0  0  0
 18 27  2  0  0  0
 18 19  1  0  0  0
 19 20  2  0  0  0
 19 36  1  0  0  0
 20 21  1  0  0  0
 21 22  2  0  0  0
 21 37  1  0  0  0
 22 27  1  0  0  0
 22 23  1  0  0  0
 23 24  2  0  0  0
 23 38  1  0  0  0
 24 25  1  0  0  0
 24 39  1  0  0  0
 25 26  2  0  0  0
 25 40  1  0  0  0
 26 27  1  0  0  0
 26 41  1  0  0  0
M  END
> <r_i_docking_score>
-6.26089591949088

$$$$
ligprep_5.maegz:270
                    3D
 Schrodinger Suite 2020-4.
 39 42  0  0  1  0            999 V2000
    8.4185   -1.6322   23.1048 O   0  0  0  0  0  0
    9.0625   -2.4530   23.7582 C   0  0  0  0  0  0
   10.4082   -2.4322   23.8561 N   0  0  0  0  0  0
   11.2841   -1.4800   23.3085 C   0  0  0  0  0  0
   12.3681   -1.9876   22.5850 C   0  0  0  0  0  0
   13.3724   -1.2310   22.0878 N   0  0  0  0  0  0
   13.3103    0.0988   22.3079 C   0  0  0  0  0  0
   12.2557    0.7568   22.9721 C   0  0  0  0  0  0
   12.2195    2.1653   23.1071 C   0  0  0  0  0  0
   11.1659    2.7709   23.7824 C   0  0  0  0  0  0
   10.1627    2.0000   24.3578 C   0  0  0  0  0  0
   10.1855    0.6105   24.2563 C   0  0  0  0  0  0
   11.2081   -0.0539   23.5187 C   0  0  0  0  0  0
    8.4009   -3.5525   24.4526 C   0  0  0  0  0  0
    8.7725   -3.8283   25.7305 C   0  0  0  0  0  0
    8.1058   -4.8971   26.5894 C   0  0  0  0  0  0
    6.6144   -5.0379   26.1989 C   0  0  0  0  0  0
    6.4235   -5.0949   24.6853 C   0  0  0  0  0  0
    5.4017   -5.8523   24.1025 C   0  0  0  0  0  0
    5.2449   -5.8942   22.7197 C   0  0  0  0  0  0
    6.1183   -5.1835   21.9011 C   0  0  0  0  0  0
    5.9695   -5.2540   20.1894 Cl  0  0  0  0  0  0
    7.1273   -4.4140   22.4661 C   0  0  0  0  0  0
    7.2870   -4.3473   23.8580 C   0  0  0  0  0  0
   10.8403   -3.2760   24.1971 H   0  0  0  0  0  0
   12.4635   -3.0474   22.4065 H   0  0  0  0  0  0
   14.1212    0.6825   21.8956 H   0  0  0  0  0  0
   13.0095    2.7658   22.6788 H   0  0  0  0  0  0
   11.1316    3.8465   23.8736 H   0  0  0  0  0  0
    9.3616    2.4835   24.8987 H   0  0  0  0  0  0
    9.3977    0.0453   24.7288 H   0  0  0  0  0  0
    9.5659   -3.2600   26.1960 H   0  0  0  0  0  0
    8.1860   -4.6355   27.6442 H   0  0  0  0  0  0
    8.6352   -5.8422   26.4561 H   0  0  0  0  0  0
    6.0661   -4.1707   26.5694 H   0  0  0  0  0  0
    6.1764   -5.9120   26.6850 H   0  0  0  0  0  0
    4.7241   -6.4140   24.7293 H   0  0  0  0  0  0
    4.4543   -6.4897   22.2900 H   0  0  0  0  0  0
    7.7987   -3.8810   21.8067 H   0  0  0  0  0  0
  1  2  2  0  0  0
  2  3  1  0  0  0
  2 14  1  0  0  0
  3  4  1  0  0  0
  3 25  1  0  0  0
  4 13  2  0  0  0
  4  5  1  0  0  0
  5  6  2  0  0  0
  5 26  1  0  0  0
  6  7  1  0  0  0
  7  8  2  0  0  0
  7 27  1  0  0  0
  8 13  1  0  0  0
  8  9  1  0  0  0
  9 10  2  0  0  0
  9 28  1  0  0  0
 10 11  1  0  0  0
 10 29  1  0  0  0
 11 12  2  0  0  0
 11 30  1  0  0  0
 12 13  1  0  0  0
 12 31  1  0  0  0
 14 24  1  0  0  0
 14 15  2  0  0  0
 15 16  1  0  0  0
 15 32  1  0  0  0
 16 17  1  0  0  0
 16 33  1  0  0  0
 16 34  1  0  0  0
 17 18  1  0  0  0
 17 35  1  0  0  0
 17 36  1  0  0  0
 18 24  2  0  0  0
 18 19  1  0  0  0
 19 20  2  0  0  0
 19 37  1  0  0  0
 20 21  1  0  0  0
 20 38  1  0  0  0
 21 22  1  0  0  0
 21 23  2  0  0  0
 23 24  1  0  0  0
 23 39  1  0  0  0
M  END
> <r_i_docking_score>
-7.01052604965941

$$$$
ligprep_5.maegz:271
                    3D
 Schrodinger Suite 2020-4.
 62 64  0  0  1  0            999 V2000
    5.9687    1.4545   22.4042 C   0  0  0  0  0  0
    5.8387    1.3038   20.8939 C   0  0  0  0  0  0
    4.8717    2.0573   20.2239 C   0  0  0  0  0  0
    4.7699    1.9485   18.8390 C   0  0  0  0  0  0
    5.5697    1.1434   18.0969 N   0  0  0  0  0  0
    6.5089    0.4131   18.7491 C   0  0  0  0  0  0
    6.6716    0.4537   20.1377 C   0  0  0  0  0  0
    7.6753   -0.3265   20.7173 N   0  0  0  0  0  0
    7.4480   -1.3988   21.5070 C   0  0  0  0  0  0
    6.3416   -1.9505   21.5317 O   0  0  0  0  0  0
    8.5118   -1.8449   22.2468 N   0  0  0  0  0  0
    8.3442   -3.0720   23.0489 C   0  0  0  0  0  0
    7.5604   -2.8521   24.3581 C   0  0  0  0  0  0
    7.4989   -4.1141   25.2443 C   0  0  0  0  0  0
    8.7978   -4.2976   26.0650 C   0  0  0  0  0  0
    8.7482   -5.5772   26.9198 C   0  0  0  0  0  0
    7.4935   -5.6172   27.8220 C   0  0  0  0  0  0
    6.1920   -5.3703   27.0327 C   0  0  0  0  0  0
    6.2930   -4.0703   26.2106 C   0  0  0  0  0  0
    9.7461   -1.1539   22.3932 C   0  0  0  0  0  0
   10.9423   -1.8420   22.1775 C   0  0  0  0  0  0
   12.1674   -1.1991   22.3058 C   0  0  0  0  0  0
   13.6114   -2.0503   21.9081 Cl  0  0  0  0  0  0
   12.2162    0.1423   22.6818 C   0  0  0  0  0  0
   11.0282    0.8683   22.8593 C   0  0  0  0  0  0
   10.9581    2.2214   23.1234 O   0  0  0  0  0  0
   12.1313    3.0304   23.2105 C   0  0  0  0  0  0
   11.6761    4.3752   23.7917 C   0  0  0  0  0  0
   12.8303    3.2447   21.8566 C   0  0  0  0  0  0
    9.8065    0.2025   22.7443 C   0  0  0  0  0  0
    6.9391    1.8778   22.6599 H   0  0  0  0  0  0
    5.1952    2.1008   22.8159 H   0  0  0  0  0  0
    5.8779    0.4880   22.8984 H   0  0  0  0  0  0
    4.2175    2.7281   20.7603 H   0  0  0  0  0  0
    4.0383    2.5412   18.3083 H   0  0  0  0  0  0
    7.1270   -0.2258   18.1326 H   0  0  0  0  0  0
    8.6258   -0.0069   20.6160 H   0  0  0  0  0  0
    7.8496   -3.8451   22.4539 H   0  0  0  0  0  0
    9.3161   -3.5054   23.2860 H   0  0  0  0  0  0
    7.9891   -2.0202   24.9224 H   0  0  0  0  0  0
    6.5427   -2.5459   24.1050 H   0  0  0  0  0  0
    7.3660   -4.9919   24.6077 H   0  0  0  0  0  0
    9.6662   -4.3239   25.4041 H   0  0  0  0  0  0
    8.9634   -3.4277   26.7024 H   0  0  0  0  0  0
    8.7578   -6.4520   26.2722 H   0  0  0  0  0  0
    9.6518   -5.6394   27.5217 H   0  0  0  0  0  0
    7.4390   -6.5641   28.3562 H   0  0  0  0  0  0
    7.5694   -4.8529   28.5906 H   0  0  0  0  0  0
    5.9991   -6.2158   26.3703 H   0  0  0  0  0  0
    5.3443   -5.3182   27.7161 H   0  0  0  0  0  0
    6.3654   -3.2000   26.8667 H   0  0  0  0  0  0
    5.3688   -3.9155   25.6499 H   0  0  0  0  0  0
   10.9271   -2.8697   21.8587 H   0  0  0  0  0  0
   13.1845    0.6052   22.7832 H   0  0  0  0  0  0
   12.8224    2.5608   23.9077 H   0  0  0  0  0  0
   12.5235    5.0225   24.0165 H   0  0  0  0  0  0
   11.0286    4.9049   23.0912 H   0  0  0  0  0  0
   11.1086    4.2305   24.7080 H   0  0  0  0  0  0
   13.5918    4.0228   21.9275 H   0  0  0  0  0  0
   13.3393    2.3507   21.5079 H   0  0  0  0  0  0
   12.1144    3.5477   21.0918 H   0  0  0  0  0  0
    8.9001    0.7604   22.9179 H   0  0  0  0  0  0
  1  2  1  0  0  0
  1 31  1  0  0  0
  1 32  1  0  0  0
  1 33  1  0  0  0
  2  7  2  0  0  0
  2  3  1  0  0  0
  3  4  2  0  0  0
  3 34  1  0  0  0
  4  5  1  0  0  0
  4 35  1  0  0  0
  5  6  2  0  0  0
  6  7  1  0  0  0
  6 36  1  0  0  0
  7  8  1  0  0  0
  8  9  1  0  0  0
  8 37  1  0  0  0
  9 10  2  0  0  0
  9 11  1  0  0  0
 11 12  1  0  0  0
 11 20  1  0  0  0
 12 13  1  0  0  0
 12 38  1  0  0  0
 12 39  1  0  0  0
 13 14  1  0  0  0
 13 40  1  0  0  0
 13 41  1  0  0  0
 14 19  1  0  0  0
 14 15  1  0  0  0
 14 42  1  0  0  0
 15 16  1  0  0  0
 15 43  1  0  0  0
 15 44  1  0  0  0
 16 17  1  0  0  0
 16 45  1  0  0  0
 16 46  1  0  0  0
 17 18  1  0  0  0
 17 47  1  0  0  0
 17 48  1  0  0  0
 18 19  1  0  0  0
 18 49  1  0  0  0
 18 50  1  0  0  0
 19 51  1  0  0  0
 19 52  1  0  0  0
 20 30  2  0  0  0
 20 21  1  0  0  0
 21 22  2  0  0  0
 21 53  1  0  0  0
 22 23  1  0  0  0
 22 24  1  0  0  0
 24 25  2  0  0  0
 24 54  1  0  0  0
 25 26  1  0  0  0
 25 30  1  0  0  0
 26 27  1  0  0  0
 27 28  1  0  0  0
 27 29  1  0  0  0
 27 55  1  0  0  0
 28 56  1  0  0  0
 28 57  1  0  0  0
 28 58  1  0  0  0
 29 59  1  0  0  0
 29 60  1  0  0  0
 29 61  1  0  0  0
 30 62  1  0  0  0
M  END
> <r_i_docking_score>
-5.87984556701485

$$$$
ligprep_5.maegz:272
                    3D
 Schrodinger Suite 2020-4.
 64 68  0  0  1  0            999 V2000
    1.4673    4.3974   20.4837 O   0  0  0  0  0  0
    2.4443    4.0044   21.1172 C   0  0  0  0  0  0
    3.5117    4.6655   22.0175 C   0  0  0  0  0  0
    4.0925    3.2346   22.1774 C   0  0  1  0  0  0
    4.0150    2.7481   23.4850 O   0  0  0  0  0  0
    5.2022    2.5305   24.1356 C   0  0  0  0  0  0
    5.7166    3.5055   24.9874 C   0  0  0  0  0  0
    6.9252    3.2907   25.6429 C   0  0  0  0  0  0
    7.5663    4.5007   26.6921 Cl  0  0  0  0  0  0
    7.6227    2.1007   25.4457 C   0  0  0  0  0  0
    7.1320    1.1130   24.5710 C   0  0  0  0  0  0
    7.8688   -0.0907   24.3328 N   0  0  0  0  0  0
    7.1139   -1.3571   24.2148 C   0  0  0  0  0  0
    6.8583   -1.8353   22.7607 C   0  0  0  0  0  0
    6.3471   -3.2896   22.6288 C   0  0  0  0  0  0
    7.4539   -4.3247   22.9418 C   0  0  0  0  0  0
    6.9584   -5.7646   22.7119 C   0  0  0  0  0  0
    5.6933   -6.0561   23.5478 C   0  0  0  0  0  0
    4.5808   -5.0121   23.3128 C   0  0  0  0  0  0
    5.1036   -3.5751   23.5069 C   0  0  0  0  0  0
    9.2245   -0.1359   24.1171 C   0  0  0  0  0  0
    9.8632   -1.1906   24.1406 O   0  0  0  0  0  0
    9.7852    1.0472   23.7745 N   0  0  0  0  0  0
   11.0747    1.3548   23.3023 C   0  0  0  0  0  0
   11.9860    0.3863   22.8464 C   0  0  0  0  0  0
   13.2142    0.6706   22.3617 N   0  0  0  0  0  0
   13.5697    1.9704   22.3079 C   0  0  0  0  0  0
   12.7650    3.0478   22.7266 C   0  0  0  0  0  0
   13.2038    4.3939   22.6736 C   0  0  0  0  0  0
   12.3768    5.4152   23.1294 C   0  0  0  0  0  0
   11.1092    5.1292   23.6210 C   0  0  0  0  0  0
   10.6495    3.8159   23.6808 C   0  0  0  0  0  0
   11.4711    2.7339   23.2437 C   0  0  0  0  0  0
    5.8991    1.3374   23.9428 C   0  0  0  0  0  0
    3.0097    2.7484   21.2961 N   0  0  0  0  0  0
    4.1762    5.3622   21.5070 H   0  0  0  0  0  0
    3.1202    5.1013   22.9342 H   0  0  0  0  0  0
    5.1010    3.0818   21.7709 H   0  0  0  0  0  0
    5.1750    4.4277   25.1326 H   0  0  0  0  0  0
    8.5495    1.9477   25.9821 H   0  0  0  0  0  0
    7.6634   -2.1325   24.7509 H   0  0  0  0  0  0
    6.1724   -1.2859   24.7601 H   0  0  0  0  0  0
    6.1374   -1.1814   22.2731 H   0  0  0  0  0  0
    7.7737   -1.7399   22.1741 H   0  0  0  0  0  0
    6.0517   -3.4481   21.5891 H   0  0  0  0  0  0
    8.3280   -4.1292   22.3179 H   0  0  0  0  0  0
    7.8128   -4.2078   23.9642 H   0  0  0  0  0  0
    6.7445   -5.9148   21.6514 H   0  0  0  0  0  0
    7.7482   -6.4712   22.9668 H   0  0  0  0  0  0
    5.3225   -7.0579   23.3273 H   0  0  0  0  0  0
    5.9581   -6.0530   24.6069 H   0  0  0  0  0  0
    4.1797   -5.1272   22.3076 H   0  0  0  0  0  0
    3.7490   -5.2008   23.9914 H   0  0  0  0  0  0
    5.3367   -3.4108   24.5600 H   0  0  0  0  0  0
    4.3220   -2.8497   23.2800 H   0  0  0  0  0  0
    9.1603    1.8375   23.8206 H   0  0  0  0  0  0
   11.7473   -0.6655   22.8287 H   0  0  0  0  0  0
   14.5552    2.1690   21.9142 H   0  0  0  0  0  0
   14.1911    4.6189   22.2957 H   0  0  0  0  0  0
   12.7242    6.4368   23.1078 H   0  0  0  0  0  0
   10.4739    5.9341   23.9630 H   0  0  0  0  0  0
    9.6615    3.6279   24.0688 H   0  0  0  0  0  0
    5.4740    0.6113   23.2704 H   0  0  0  0  0  0
    3.0170    1.9873   20.6351 H   0  0  0  0  0  0
  1  2  2  0  0  0
  2 35  1  0  0  0
  2  3  1  0  0  0
  3  4  1  0  0  0
  3 36  1  0  0  0
  3 37  1  0  0  0
  4  5  1  0  0  0
  4 35  1  0  0  0
  4 38  1  0  0  0
  5  6  1  0  0  0
  6 34  2  0  0  0
  6  7  1  0  0  0
  7  8  2  0  0  0
  7 39  1  0  0  0
  8  9  1  0  0  0
  8 10  1  0  0  0
 10 11  2  0  0  0
 10 40  1  0  0  0
 11 12  1  0  0  0
 11 34  1  0  0  0
 12 13  1  0  0  0
 12 21  1  0  0  0
 13 14  1  0  0  0
 13 41  1  0  0  0
 13 42  1  0  0  0
 14 15  1  0  0  0
 14 43  1  0  0  0
 14 44  1  0  0  0
 15 20  1  0  0  0
 15 16  1  0  0  0
 15 45  1  0  0  0
 16 17  1  0  0  0
 16 46  1  0  0  0
 16 47  1  0  0  0
 17 18  1  0  0  0
 17 48  1  0  0  0
 17 49  1  0  0  0
 18 19  1  0  0  0
 18 50  1  0  0  0
 18 51  1  0  0  0
 19 20  1  0  0  0
 19 52  1  0  0  0
 19 53  1  0  0  0
 20 54  1  0  0  0
 20 55  1  0  0  0
 21 22  2  0  0  0
 21 23  1  0  0  0
 23 24  1  0  0  0
 23 56  1  0  0  0
 24 33  2  0  0  0
 24 25  1  0  0  0
 25 26  2  0  0  0
 25 57  1  0  0  0
 26 27  1  0  0  0
 27 28  2  0  0  0
 27 58  1  0  0  0
 28 33  1  0  0  0
 28 29  1  0  0  0
 29 30  2  0  0  0
 29 59  1  0  0  0
 30 31  1  0  0  0
 30 60  1  0  0  0
 31 32  2  0  0  0
 31 61  1  0  0  0
 32 33  1  0  0  0
 32 62  1  0  0  0
 34 63  1  0  0  0
 35 64  1  0  0  0
M  END
> <r_i_docking_score>
-3.1594205721777

$$$$
ligprep_5.maegz:273
                    3D
 Schrodinger Suite 2020-4.
 43 46  0  0  1  0            999 V2000
   12.4169    4.8008   22.9514 C   0  0  0  0  0  0
   11.6946    3.6543   23.5094 N   0  0  0  0  0  0
   10.3531    4.1105   23.8977 C   0  0  0  0  0  0
    9.5200    2.9901   24.5458 C   0  0  0  0  0  0
    9.4697    1.7089   23.6859 C   0  0  1  0  0  0
    8.5265    1.8468   22.4644 C   0  0  0  0  0  0
    8.3801    2.9345   21.9081 O   0  0  0  0  0  0
    7.8813    0.7372   22.0468 N   0  0  0  0  0  0
    7.0037    0.7285   20.9501 C   0  0  0  0  0  0
    7.3277   -0.0902   19.8662 C   0  0  0  0  0  0
    6.6329   -0.1153   18.7081 N   0  0  0  0  0  0
    5.5631    0.7027   18.6065 C   0  0  0  0  0  0
    5.0862    1.5369   19.6424 C   0  0  0  0  0  0
    3.9335    2.3473   19.5059 C   0  0  0  0  0  0
    3.5017    3.1366   20.5663 C   0  0  0  0  0  0
    4.1956    3.1423   21.7692 C   0  0  0  0  0  0
    5.3352    2.3605   21.9315 C   0  0  0  0  0  0
    5.8200    1.5451   20.8681 C   0  0  0  0  0  0
   10.8830    1.3400   23.2195 C   0  0  0  0  0  0
   11.1734    0.0217   22.8324 C   0  0  0  0  0  0
   12.4393   -0.3419   22.3828 C   0  0  0  0  0  0
   12.7717   -1.9670   21.9088 Cl  0  0  0  0  0  0
   13.4397    0.6160   22.3082 C   0  0  0  0  0  0
   13.1694    1.9344   22.6540 C   0  0  0  0  0  0
   11.8972    2.3285   23.0897 C   0  0  0  0  0  0
   12.1238    4.9675   21.9093 H   0  0  0  0  0  0
   12.2269    5.7238   23.5077 H   0  0  0  0  0  0
   13.4989    4.6508   22.9818 H   0  0  0  0  0  0
   10.3688    5.0480   24.4576 H   0  0  0  0  0  0
    9.8725    4.4140   22.9686 H   0  0  0  0  0  0
    9.9665    2.7496   25.5086 H   0  0  0  0  0  0
    8.5180    3.3633   24.7612 H   0  0  0  0  0  0
    9.0459    0.8955   24.2766 H   0  0  0  0  0  0
    8.1732   -0.1556   22.4122 H   0  0  0  0  0  0
    8.2009   -0.7274   19.8904 H   0  0  0  0  0  0
    5.0331    0.6776   17.6648 H   0  0  0  0  0  0
    3.4006    2.3639   18.5680 H   0  0  0  0  0  0
    2.6340    3.7668   20.4465 H   0  0  0  0  0  0
    3.8532    3.7679   22.5802 H   0  0  0  0  0  0
    5.8570    2.3847   22.8755 H   0  0  0  0  0  0
   10.4080   -0.7373   22.8899 H   0  0  0  0  0  0
   14.4213    0.3487   21.9572 H   0  0  0  0  0  0
   13.9724    2.6471   22.5795 H   0  0  0  0  0  0
  1  2  1  0  0  0
  1 26  1  0  0  0
  1 27  1  0  0  0
  1 28  1  0  0  0
  2 25  1  0  0  0
  2  3  1  0  0  0
  3  4  1  0  0  0
  3 29  1  0  0  0
  3 30  1  0  0  0
  4  5  1  0  0  0
  4 31  1  0  0  0
  4 32  1  0  0  0
  5  6  1  0  0  0
  5 19  1  0  0  0
  5 33  1  0  0  0
  6  7  2  0  0  0
  6  8  1  0  0  0
  8  9  1  0  0  0
  8 34  1  0  0  0
  9 18  2  0  0  0
  9 10  1  0  0  0
 10 11  2  0  0  0
 10 35  1  0  0  0
 11 12  1  0  0  0
 12 13  2  0  0  0
 12 36  1  0  0  0
 13 18  1  0  0  0
 13 14  1  0  0  0
 14 15  2  0  0  0
 14 37  1  0  0  0
 15 16  1  0  0  0
 15 38  1  0  0  0
 16 17  2  0  0  0
 16 39  1  0  0  0
 17 18  1  0  0  0
 17 40  1  0  0  0
 19 25  2  0  0  0
 19 20  1  0  0  0
 20 21  2  0  0  0
 20 41  1  0  0  0
 21 22  1  0  0  0
 21 23  1  0  0  0
 23 24  2  0  0  0
 23 42  1  0  0  0
 24 25  1  0  0  0
 24 43  1  0  0  0
M  END
> <r_i_docking_score>
-6.14828290923711

$$$$
ligprep_5.maegz:274
                    3D
 Schrodinger Suite 2020-4.
 48 51  0  0  1  0            999 V2000
    4.4827    1.8003   18.7081 C   0  0  0  0  0  0
    5.5685    2.0364   19.5918 O   0  0  0  0  0  0
    6.1620    0.9752   20.2373 C   0  0  0  0  0  0
    7.1007    1.3040   21.2112 C   0  0  0  0  0  0
    7.7450    0.3083   21.9357 C   0  0  0  0  0  0
    7.4577   -1.0374   21.6843 C   0  0  0  0  0  0
    8.1118   -2.0659   22.4012 N   0  0  0  0  0  0
    9.5576   -2.2529   22.1449 C   0  0  0  0  0  0
   10.4933   -1.2494   22.8201 C   0  0  0  0  0  0
   10.1770   -0.6604   24.0519 C   0  0  0  0  0  0
   10.9811    0.3480   24.5776 C   0  0  0  0  0  0
   12.1339    0.7472   23.9014 C   0  0  0  0  0  0
   12.4959    0.1144   22.7131 C   0  0  0  0  0  0
   13.9658    0.5506   21.9259 Cl  0  0  0  0  0  0
   11.6732   -0.8737   22.1710 C   0  0  0  0  0  0
    7.4297   -2.7926   23.3380 C   0  0  0  0  0  0
    6.2377   -2.5933   23.5914 O   0  0  0  0  0  0
    8.1727   -3.9154   24.1002 C   0  0  0  0  0  0
    7.4581   -4.5111   25.2316 N   0  0  0  0  0  0
    7.9754   -4.4280   26.4751 N   0  0  0  0  0  0
    7.1482   -5.1067   27.3425 N   0  0  0  0  0  0
    6.1189   -5.6168   26.6079 C   0  0  0  0  0  0
    5.0204   -6.3936   27.0009 C   0  0  0  0  0  0
    4.1121   -6.7885   26.0162 C   0  0  0  0  0  0
    4.2926   -6.4286   24.6792 C   0  0  0  0  0  0
    5.3776   -5.6529   24.2595 C   0  0  0  0  0  0
    6.2854   -5.2529   25.2486 C   0  0  0  0  0  0
    6.5202   -1.3721   20.7025 C   0  0  0  0  0  0
    5.8805   -0.3728   19.9758 C   0  0  0  0  0  0
    4.1411    2.7553   18.3082 H   0  0  0  0  0  0
    4.7752    1.1726   17.8664 H   0  0  0  0  0  0
    3.6431    1.3362   19.2268 H   0  0  0  0  0  0
    7.3172    2.3429   21.4141 H   0  0  0  0  0  0
    8.4511    0.6050   22.6918 H   0  0  0  0  0  0
    9.8978   -3.2526   22.4090 H   0  0  0  0  0  0
    9.7081   -2.1769   21.0670 H   0  0  0  0  0  0
    9.2805   -0.9399   24.5852 H   0  0  0  0  0  0
   10.7009    0.8197   25.5072 H   0  0  0  0  0  0
   12.7615    1.5262   24.3073 H   0  0  0  0  0  0
   11.9464   -1.3347   21.2321 H   0  0  0  0  0  0
    9.1332   -3.5438   24.4616 H   0  0  0  0  0  0
    8.3702   -4.7245   23.3974 H   0  0  0  0  0  0
    4.8891   -6.6863   28.0323 H   0  0  0  0  0  0
    3.2596   -7.3928   26.2932 H   0  0  0  0  0  0
    3.5713   -6.7596   23.9450 H   0  0  0  0  0  0
    5.5047   -5.3780   23.2226 H   0  0  0  0  0  0
    6.2961   -2.4077   20.4952 H   0  0  0  0  0  0
    5.1690   -0.6586   19.2176 H   0  0  0  0  0  0
  1  2  1  0  0  0
  1 30  1  0  0  0
  1 31  1  0  0  0
  1 32  1  0  0  0
  2  3  1  0  0  0
  3 29  2  0  0  0
  3  4  1  0  0  0
  4  5  2  0  0  0
  4 33  1  0  0  0
  5  6  1  0  0  0
  5 34  1  0  0  0
  6  7  1  0  0  0
  6 28  2  0  0  0
  7  8  1  0  0  0
  7 16  1  0  0  0
  8  9  1  0  0  0
  8 35  1  0  0  0
  8 36  1  0  0  0
  9 15  2  0  0  0
  9 10  1  0  0  0
 10 11  2  0  0  0
 10 37  1  0  0  0
 11 12  1  0  0  0
 11 38  1  0  0  0
 12 13  2  0  0  0
 12 39  1  0  0  0
 13 14  1  0  0  0
 13 15  1  0  0  0
 15 40  1  0  0  0
 16 17  2  0  0  0
 16 18  1  0  0  0
 18 19  1  0  0  0
 18 41  1  0  0  0
 18 42  1  0  0  0
 19 27  1  0  0  0
 19 20  1  0  0  0
 20 21  2  0  0  0
 21 22  1  0  0  0
 22 27  2  0  0  0
 22 23  1  0  0  0
 23 24  2  0  0  0
 23 43  1  0  0  0
 24 25  1  0  0  0
 24 44  1  0  0  0
 25 26  2  0  0  0
 25 45  1  0  0  0
 26 27  1  0  0  0
 26 46  1  0  0  0
 28 29  1  0  0  0
 28 47  1  0  0  0
 29 48  1  0  0  0
M  END
> <r_i_docking_score>
-5.19311329552903

$$$$
ligprep_5.maegz:275
                    3D
 Schrodinger Suite 2020-4.
 57 61  0  0  1  0            999 V2000
    8.0957   -1.0830   23.9931 O   0  0  0  0  0  0
    7.7387   -1.3079   22.8307 C   0  0  0  0  0  0
    6.7994   -2.5068   22.5672 C   0  0  0  0  0  0
    6.4757   -3.3239   23.7415 N   0  0  0  0  0  0
    5.1871   -3.5345   24.0804 N   0  0  0  0  0  0
    5.1513   -4.3240   25.2085 N   0  0  0  0  0  0
    6.4414   -4.6005   25.5532 C   0  0  0  0  0  0
    6.9557   -5.3494   26.6207 C   0  0  0  0  0  0
    8.3420   -5.4710   26.7258 C   0  0  0  0  0  0
    9.1953   -4.8699   25.7998 C   0  0  0  0  0  0
    8.7099   -4.1164   24.7273 C   0  0  0  0  0  0
    7.3181   -3.9895   24.6233 C   0  0  0  0  0  0
    8.1624   -0.5435   21.7778 N   0  0  0  0  0  0
    7.5714   -0.6598   20.4263 C   0  0  0  0  0  0
    6.4774    0.3393   20.0494 C   0  0  0  0  0  0
    6.2692    0.6177   18.6976 C   0  0  0  0  0  0
    5.3068    1.5465   18.3098 C   0  0  0  0  0  0
    4.5534    2.2248   19.2641 C   0  0  0  0  0  0
    4.7430    1.9468   20.6147 C   0  0  0  0  0  0
    3.8085    2.7693   21.8071 Cl  0  0  0  0  0  0
    5.6848    0.9930   21.0032 C   0  0  0  0  0  0
    9.1375    0.4544   22.0088 C   0  0  0  0  0  0
   10.4563    0.0873   22.3106 C   0  0  0  0  0  0
   11.3777    1.0574   22.7079 C   0  0  0  0  0  0
   10.9932    2.3991   22.8112 C   0  0  0  0  0  0
   11.8863    3.3491   23.2947 N   0  0  0  0  0  0
   13.2214    3.5569   22.7113 C   0  0  0  0  0  0
   13.2509    4.8244   21.8314 C   0  0  0  0  0  0
   12.8232    5.9450   22.5950 O   0  0  0  0  0  0
   11.5018    5.8015   23.1001 C   0  0  0  0  0  0
   11.4698    4.5649   24.0161 C   0  0  0  0  0  0
    9.6936    2.7562   22.4395 C   0  0  0  0  0  0
    8.7728    1.8002   22.0379 C   0  0  0  0  0  0
    7.2736   -3.1736   21.8476 H   0  0  0  0  0  0
    5.8706   -2.1342   22.1308 H   0  0  0  0  0  0
    6.3009   -5.8289   27.3330 H   0  0  0  0  0  0
    8.7650   -6.0498   27.5335 H   0  0  0  0  0  0
   10.2625   -4.9991   25.9157 H   0  0  0  0  0  0
    9.3839   -3.6516   24.0230 H   0  0  0  0  0  0
    8.3729   -0.5524   19.6981 H   0  0  0  0  0  0
    7.1573   -1.6494   20.2482 H   0  0  0  0  0  0
    6.8562    0.1232   17.9370 H   0  0  0  0  0  0
    5.1712    1.7676   17.2604 H   0  0  0  0  0  0
    3.8374    2.9715   18.9520 H   0  0  0  0  0  0
    5.8038    0.7820   22.0552 H   0  0  0  0  0  0
   10.7515   -0.9519   22.2858 H   0  0  0  0  0  0
   12.3791    0.7559   22.9798 H   0  0  0  0  0  0
   13.9545    3.6846   23.5063 H   0  0  0  0  0  0
   13.5450    2.6838   22.1428 H   0  0  0  0  0  0
   12.6417    4.7061   20.9333 H   0  0  0  0  0  0
   14.2706    5.0288   21.5088 H   0  0  0  0  0  0
   10.7757    5.7251   22.2905 H   0  0  0  0  0  0
   11.2446    6.6964   23.6667 H   0  0  0  0  0  0
   10.4866    4.4305   24.4684 H   0  0  0  0  0  0
   12.1515    4.7461   24.8474 H   0  0  0  0  0  0
    9.3781    3.7884   22.4632 H   0  0  0  0  0  0
    7.7744    2.1276   21.8081 H   0  0  0  0  0  0
  1  2  2  0  0  0
  2  3  1  0  0  0
  2 13  1  0  0  0
  3  4  1  0  0  0
  3 34  1  0  0  0
  3 35  1  0  0  0
  4 12  1  0  0  0
  4  5  1  0  0  0
  5  6  2  0  0  0
  6  7  1  0  0  0
  7 12  2  0  0  0
  7  8  1  0  0  0
  8  9  2  0  0  0
  8 36  1  0  0  0
  9 10  1  0  0  0
  9 37  1  0  0  0
 10 11  2  0  0  0
 10 38  1  0  0  0
 11 12  1  0  0  0
 11 39  1  0  0  0
 13 14  1  0  0  0
 13 22  1  0  0  0
 14 15  1  0  0  0
 14 40  1  0  0  0
 14 41  1  0  0  0
 15 21  2  0  0  0
 15 16  1  0  0  0
 16 17  2  0  0  0
 16 42  1  0  0  0
 17 18  1  0  0  0
 17 43  1  0  0  0
 18 19  2  0  0  0
 18 44  1  0  0  0
 19 20  1  0  0  0
 19 21  1  0  0  0
 21 45  1  0  0  0
 22 33  2  0  0  0
 22 23  1  0  0  0
 23 24  2  0  0  0
 23 46  1  0  0  0
 24 25  1  0  0  0
 24 47  1  0  0  0
 25 26  1  0  0  0
 25 32  2  0  0  0
 26 31  1  0  0  0
 26 27  1  0  0  0
 27 28  1  0  0  0
 27 48  1  0  0  0
 27 49  1  0  0  0
 28 29  1  0  0  0
 28 50  1  0  0  0
 28 51  1  0  0  0
 29 30  1  0  0  0
 30 31  1  0  0  0
 30 52  1  0  0  0
 30 53  1  0  0  0
 31 54  1  0  0  0
 31 55  1  0  0  0
 32 33  1  0  0  0
 32 56  1  0  0  0
 33 57  1  0  0  0
M  END
> <r_i_docking_score>
-5.47083312796708

$$$$
ligprep_5.maegz:276
                    3D
 Schrodinger Suite 2020-4.
 56 59  0  0  1  0            999 V2000
    8.8680    1.5459   21.1081 O   0  0  0  0  0  0
    8.8208    0.5370   21.8188 C   0  0  0  0  0  0
    9.5349    0.6180   23.1897 C   0  0  0  0  0  0
   10.9963    1.0328   23.0005 C   0  0  0  0  0  0
   11.9383    0.0600   22.6513 C   0  0  0  0  0  0
   13.2160    0.3333   22.3090 N   0  0  0  0  0  0
   13.5870    1.6317   22.3080 C   0  0  0  0  0  0
   12.7613    2.7116   22.6871 C   0  0  0  0  0  0
   13.2213    4.0502   22.7072 C   0  0  0  0  0  0
   12.3685    5.0776   23.0908 C   0  0  0  0  0  0
   11.0525    4.8035   23.4412 C   0  0  0  0  0  0
   10.5652    3.4970   23.4163 C   0  0  0  0  0  0
   11.4098    2.4101   23.0473 C   0  0  0  0  0  0
    8.1553   -0.5851   21.4133 N   0  0  0  0  0  0
    8.2155   -1.8980   22.0819 C   0  0  0  0  0  0
    6.8547   -2.3780   22.6356 C   0  0  0  0  0  0
    6.9571   -3.5721   23.6235 C   0  0  0  0  0  0
    5.5761   -4.1008   24.0878 C   0  0  0  0  0  0
    4.8280   -4.8561   22.9657 C   0  0  0  0  0  0
    5.6859   -5.9912   22.3598 C   0  0  0  0  0  0
    7.0882   -5.5070   21.9417 C   0  0  0  0  0  0
    7.7883   -4.7726   23.1033 C   0  0  0  0  0  0
    7.4702   -0.6333   20.1006 C   0  0  0  0  0  0
    6.3471    0.3790   19.9250 C   0  0  0  0  0  0
    5.6645    1.1454   20.8738 C   0  0  0  0  0  0
    4.7317    2.0361   20.3429 C   0  0  0  0  0  0
    4.6542    1.9463   18.9692 C   0  0  0  0  0  0
    5.7286    0.7475   18.3388 S   0  0  0  0  0  0
    8.9906    1.3226   23.8141 H   0  0  0  0  0  0
    9.5143   -0.2967   23.7711 H   0  0  0  0  0  0
   11.6569   -0.9807   22.5858 H   0  0  0  0  0  0
   14.6089    1.8280   22.0168 H   0  0  0  0  0  0
   14.2439    4.2670   22.4333 H   0  0  0  0  0  0
   12.7258    6.0970   23.1069 H   0  0  0  0  0  0
   10.3926    5.6147   23.7166 H   0  0  0  0  0  0
    9.5312    3.3331   23.6738 H   0  0  0  0  0  0
    8.9327   -1.9217   22.8947 H   0  0  0  0  0  0
    8.6073   -2.6337   21.3798 H   0  0  0  0  0  0
    6.2080   -2.6339   21.7970 H   0  0  0  0  0  0
    6.3630   -1.5480   23.1482 H   0  0  0  0  0  0
    7.4673   -3.2138   24.5197 H   0  0  0  0  0  0
    4.9599   -3.2745   24.4452 H   0  0  0  0  0  0
    5.7101   -4.7690   24.9392 H   0  0  0  0  0  0
    4.5383   -4.1551   22.1863 H   0  0  0  0  0  0
    3.8940   -5.2669   23.3530 H   0  0  0  0  0  0
    5.1770   -6.4453   21.5089 H   0  0  0  0  0  0
    5.7921   -6.7904   23.0947 H   0  0  0  0  0  0
    7.0103   -4.8457   21.0794 H   0  0  0  0  0  0
    7.6942   -6.3532   21.6185 H   0  0  0  0  0  0
    7.9712   -5.4772   23.9153 H   0  0  0  0  0  0
    8.7691   -4.4325   22.7759 H   0  0  0  0  0  0
    8.2238   -0.4793   19.3259 H   0  0  0  0  0  0
    7.0845   -1.6354   19.9079 H   0  0  0  0  0  0
    5.8641    1.0829   21.9332 H   0  0  0  0  0  0
    4.1463    2.7241   20.9377 H   0  0  0  0  0  0
    4.0285    2.5313   18.3078 H   0  0  0  0  0  0
  1  2  2  0  0  0
  2  3  1  0  0  0
  2 14  1  0  0  0
  3  4  1  0  0  0
  3 29  1  0  0  0
  3 30  1  0  0  0
  4 13  2  0  0  0
  4  5  1  0  0  0
  5  6  2  0  0  0
  5 31  1  0  0  0
  6  7  1  0  0  0
  7  8  2  0  0  0
  7 32  1  0  0  0
  8 13  1  0  0  0
  8  9  1  0  0  0
  9 10  2  0  0  0
  9 33  1  0  0  0
 10 11  1  0  0  0
 10 34  1  0  0  0
 11 12  2  0  0  0
 11 35  1  0  0  0
 12 13  1  0  0  0
 12 36  1  0  0  0
 14 15  1  0  0  0
 14 23  1  0  0  0
 15 16  1  0  0  0
 15 37  1  0  0  0
 15 38  1  0  0  0
 16 17  1  0  0  0
 16 39  1  0  0  0
 16 40  1  0  0  0
 17 22  1  0  0  0
 17 18  1  0  0  0
 17 41  1  0  0  0
 18 19  1  0  0  0
 18 42  1  0  0  0
 18 43  1  0  0  0
 19 20  1  0  0  0
 19 44  1  0  0  0
 19 45  1  0  0  0
 20 21  1  0  0  0
 20 46  1  0  0  0
 20 47  1  0  0  0
 21 22  1  0  0  0
 21 48  1  0  0  0
 21 49  1  0  0  0
 22 50  1  0  0  0
 22 51  1  0  0  0
 23 24  1  0  0  0
 23 52  1  0  0  0
 23 53  1  0  0  0
 24 28  1  0  0  0
 24 25  2  0  0  0
 25 26  1  0  0  0
 25 54  1  0  0  0
 26 27  2  0  0  0
 26 55  1  0  0  0
 27 28  1  0  0  0
 27 56  1  0  0  0
M  END
> <r_i_docking_score>
-7.54267521256334

$$$$
ligprep_5.maegz:277
                    3D
 Schrodinger Suite 2020-4.
 35 37  0  0  1  0            999 V2000
    9.5696    1.5473   21.1453 O   0  0  0  0  0  0
    8.8602    1.8403   22.1068 C   0  0  0  0  0  0
    9.5029    2.2200   23.4553 C   0  0  0  0  0  0
   10.7481    3.1089   23.3448 C   0  0  0  0  0  0
   11.9046    2.6478   22.6994 C   0  0  0  0  0  0
   13.0286    3.4648   22.5850 C   0  0  0  0  0  0
   13.0317    4.7321   23.1678 C   0  0  0  0  0  0
   11.9099    5.1770   23.8694 C   0  0  0  0  0  0
   11.9662    6.6894   24.7029 Cl  0  0  0  0  0  0
   10.7626    4.3824   23.9303 C   0  0  0  0  0  0
    7.5119    1.8223   22.0628 N   0  0  0  0  0  0
    6.7086    1.5217   20.9490 C   0  0  0  0  0  0
    7.1003    0.6205   19.9397 C   0  0  0  0  0  0
    6.3578    0.3626   18.8361 N   0  0  0  0  0  0
    5.1677    0.9983   18.7197 C   0  0  0  0  0  0
    4.6736    1.8695   19.6905 C   0  0  0  0  0  0
    5.4511    2.1273   20.8207 C   0  0  0  0  0  0
    4.7045    3.0291   21.7817 C   0  0  0  0  0  0
    3.4534    3.4634   21.0098 C   0  0  0  0  0  0
    3.3405    2.5741   19.7642 C   0  0  0  0  0  0
    9.7943    1.2953   23.9568 H   0  0  0  0  0  0
    8.7579    2.6951   24.0953 H   0  0  0  0  0  0
   11.9266    1.6500   22.2835 H   0  0  0  0  0  0
   13.9096    3.1082   22.0663 H   0  0  0  0  0  0
   13.9139    5.3535   23.1043 H   0  0  0  0  0  0
    9.8948    4.7439   24.4626 H   0  0  0  0  0  0
    7.0151    2.1590   22.8718 H   0  0  0  0  0  0
    8.0273    0.0724   19.9968 H   0  0  0  0  0  0
    4.5968    0.7587   17.8347 H   0  0  0  0  0  0
    4.4099    2.4770   22.6737 H   0  0  0  0  0  0
    5.2890    3.8970   22.0852 H   0  0  0  0  0  0
    3.5668    4.5051   20.7030 H   0  0  0  0  0  0
    2.5540    3.4229   21.6246 H   0  0  0  0  0  0
    3.1310    3.1718   18.8728 H   0  0  0  0  0  0
    2.5329    1.8553   19.9058 H   0  0  0  0  0  0
  1  2  2  0  0  0
  2  3  1  0  0  0
  2 11  1  0  0  0
  3  4  1  0  0  0
  3 21  1  0  0  0
  3 22  1  0  0  0
  4 10  2  0  0  0
  4  5  1  0  0  0
  5  6  2  0  0  0
  5 23  1  0  0  0
  6  7  1  0  0  0
  6 24  1  0  0  0
  7  8  2  0  0  0
  7 25  1  0  0  0
  8  9  1  0  0  0
  8 10  1  0  0  0
 10 26  1  0  0  0
 11 12  1  0  0  0
 11 27  1  0  0  0
 12 17  2  0  0  0
 12 13  1  0  0  0
 13 14  2  0  0  0
 13 28  1  0  0  0
 14 15  1  0  0  0
 15 16  2  0  0  0
 15 29  1  0  0  0
 16 20  1  0  0  0
 16 17  1  0  0  0
 17 18  1  0  0  0
 18 19  1  0  0  0
 18 30  1  0  0  0
 18 31  1  0  0  0
 19 20  1  0  0  0
 19 32  1  0  0  0
 19 33  1  0  0  0
 20 34  1  0  0  0
 20 35  1  0  0  0
M  END
> <r_i_docking_score>
-5.94533744837343

$$$$
ligprep_5.maegz:278
                    3D
 Schrodinger Suite 2020-4.
 36 39  0  0  1  0            999 V2000
    8.3662    1.1410   20.6677 O   0  0  0  0  0  0
    7.8814    0.7871   21.7435 C   0  0  0  0  0  0
    8.5078    1.0086   22.9171 N   0  0  0  0  0  0
    9.8315    1.4639   22.9982 C   0  0  0  0  0  0
   10.0750    2.8106   23.2807 C   0  0  0  0  0  0
   11.3138    3.3509   23.3427 N   0  0  0  0  0  0
   12.3626    2.5309   23.1075 C   0  0  0  0  0  0
   12.2569    1.1492   22.8274 C   0  0  0  0  0  0
   13.3835    0.3301   22.5845 C   0  0  0  0  0  0
   13.2130   -1.0247   22.3076 C   0  0  0  0  0  0
   11.9459   -1.5902   22.2822 C   0  0  0  0  0  0
   10.8182   -0.8053   22.5059 C   0  0  0  0  0  0
   10.9447    0.5877   22.7767 C   0  0  0  0  0  0
    6.5193    0.0538   21.8012 C   0  0  1  0  0  0
    5.9519   -0.3399   20.4104 C   0  0  0  0  0  0
    5.9698   -1.7674   20.3183 O   0  0  0  0  0  0
    6.2954   -2.2691   21.5516 C   0  0  0  0  0  0
    6.3397   -3.6281   21.8727 C   0  0  0  0  0  0
    5.9695   -4.8465   20.7039 Cl  0  0  0  0  0  0
    6.7014   -3.9967   23.1712 C   0  0  0  0  0  0
    6.9986   -3.0180   24.1242 C   0  0  0  0  0  0
    6.9496   -1.6647   23.7834 C   0  0  0  0  0  0
    6.6100   -1.2904   22.4798 C   0  0  0  0  0  0
    8.0078    0.8584   23.7822 H   0  0  0  0  0  0
    9.2537    3.4954   23.4392 H   0  0  0  0  0  0
   13.3403    2.9925   23.1422 H   0  0  0  0  0  0
   14.3696    0.7677   22.6027 H   0  0  0  0  0  0
   14.0739   -1.6462   22.1125 H   0  0  0  0  0  0
   11.8289   -2.6421   22.0613 H   0  0  0  0  0  0
    9.8393   -1.2614   22.4641 H   0  0  0  0  0  0
    5.8313    0.7310   22.3126 H   0  0  0  0  0  0
    6.4680    0.0870   19.5505 H   0  0  0  0  0  0
    4.9131   -0.0106   20.3426 H   0  0  0  0  0  0
    6.7489   -5.0425   23.4459 H   0  0  0  0  0  0
    7.2714   -3.3086   25.1284 H   0  0  0  0  0  0
    7.1913   -0.9266   24.5315 H   0  0  0  0  0  0
  1  2  2  0  0  0
  2  3  1  0  0  0
  2 14  1  0  0  0
  3  4  1  0  0  0
  3 24  1  0  0  0
  4 13  2  0  0  0
  4  5  1  0  0  0
  5  6  2  0  0  0
  5 25  1  0  0  0
  6  7  1  0  0  0
  7  8  2  0  0  0
  7 26  1  0  0  0
  8 13  1  0  0  0
  8  9  1  0  0  0
  9 10  2  0  0  0
  9 27  1  0  0  0
 10 11  1  0  0  0
 10 28  1  0  0  0
 11 12  2  0  0  0
 11 29  1  0  0  0
 12 13  1  0  0  0
 12 30  1  0  0  0
 14 23  1  0  0  0
 14 15  1  0  0  0
 14 31  1  0  0  0
 15 16  1  0  0  0
 15 32  1  0  0  0
 15 33  1  0  0  0
 16 17  1  0  0  0
 17 23  2  0  0  0
 17 18  1  0  0  0
 18 19  1  0  0  0
 18 20  2  0  0  0
 20 21  1  0  0  0
 20 34  1  0  0  0
 21 22  2  0  0  0
 21 35  1  0  0  0
 22 23  1  0  0  0
 22 36  1  0  0  0
M  END
> <r_i_docking_score>
-6.41388681270799

$$$$
ligprep_5.maegz:279
                    3D
 Schrodinger Suite 2020-4.
 40 43  0  0  1  0            999 V2000
    9.1703   -1.2762   25.0792 O   0  0  0  0  0  0
    9.8948   -0.8024   24.2064 C   0  0  0  0  0  0
   10.0177   -1.5386   22.8554 C   0  0  0  0  0  0
    8.6548   -1.7938   22.2289 C   0  0  0  0  0  0
    7.9235   -2.9437   22.5484 C   0  0  0  0  0  0
    6.6620   -3.1509   21.9880 C   0  0  0  0  0  0
    5.7694   -4.5839   22.3458 Cl  0  0  0  0  0  0
    6.1260   -2.2020   21.1183 C   0  0  0  0  0  0
    6.8441   -1.0491   20.7990 C   0  0  0  0  0  0
    6.2809   -0.0728   19.8401 C   0  0  0  0  0  0
    6.8431    0.2734   18.7079 N   0  0  0  0  0  0
    5.9692    1.1469   18.0625 N   0  0  0  0  0  0
    4.9550    1.3420   18.8660 C   0  0  0  0  0  0
    5.0853    0.5791   19.9966 N   0  0  0  0  0  0
    8.1080   -0.8490   21.3539 C   0  0  0  0  0  0
   10.5456    0.3515   24.4557 N   0  0  0  0  0  0
   11.5049    1.0152   23.6675 C   0  0  0  0  0  0
   12.5832    0.3213   23.1054 C   0  0  0  0  0  0
   13.5885    0.9037   22.4207 N   0  0  0  0  0  0
   13.5646    2.2475   22.3078 C   0  0  0  0  0  0
   12.5407    3.0766   22.8105 C   0  0  0  0  0  0
   12.5571    4.4831   22.6555 C   0  0  0  0  0  0
   11.5174    5.2495   23.1731 C   0  0  0  0  0  0
   10.4603    4.6449   23.8471 C   0  0  0  0  0  0
   10.4244    3.2627   24.0225 C   0  0  0  0  0  0
   11.4669    2.4401   23.5114 C   0  0  0  0  0  0
   10.5323   -2.4855   23.0258 H   0  0  0  0  0  0
   10.6139   -0.9845   22.1318 H   0  0  0  0  0  0
    8.3377   -3.6769   23.2259 H   0  0  0  0  0  0
    5.1700   -2.3787   20.6570 H   0  0  0  0  0  0
    4.0979    1.9813   18.7024 H   0  0  0  0  0  0
    4.4489    0.5121   20.7845 H   0  0  0  0  0  0
    8.6664    0.0417   21.1038 H   0  0  0  0  0  0
   10.2800    0.8136   25.3127 H   0  0  0  0  0  0
   12.6682   -0.7510   23.1908 H   0  0  0  0  0  0
   14.4002    2.6900   21.7889 H   0  0  0  0  0  0
   13.3761    4.9546   22.1314 H   0  0  0  0  0  0
   11.5247    6.3218   23.0450 H   0  0  0  0  0  0
    9.6571    5.2550   24.2369 H   0  0  0  0  0  0
    9.5936    2.8138   24.5468 H   0  0  0  0  0  0
  1  2  2  0  0  0
  2  3  1  0  0  0
  2 16  1  0  0  0
  3  4  1  0  0  0
  3 27  1  0  0  0
  3 28  1  0  0  0
  4 15  2  0  0  0
  4  5  1  0  0  0
  5  6  2  0  0  0
  5 29  1  0  0  0
  6  7  1  0  0  0
  6  8  1  0  0  0
  8  9  2  0  0  0
  8 30  1  0  0  0
  9 10  1  0  0  0
  9 15  1  0  0  0
 10 14  1  0  0  0
 10 11  2  0  0  0
 11 12  1  0  0  0
 12 13  2  0  0  0
 13 14  1  0  0  0
 13 31  1  0  0  0
 14 32  1  0  0  0
 15 33  1  0  0  0
 16 17  1  0  0  0
 16 34  1  0  0  0
 17 26  2  0  0  0
 17 18  1  0  0  0
 18 19  2  0  0  0
 18 35  1  0  0  0
 19 20  1  0  0  0
 20 21  2  0  0  0
 20 36  1  0  0  0
 21 26  1  0  0  0
 21 22  1  0  0  0
 22 23  2  0  0  0
 22 37  1  0  0  0
 23 24  1  0  0  0
 23 38  1  0  0  0
 24 25  2  0  0  0
 24 39  1  0  0  0
 25 26  1  0  0  0
 25 40  1  0  0  0
M  END
> <r_i_docking_score>
-5.87069920749137

$$$$
ligprep_5.maegz:280
                    3D
 Schrodinger Suite 2020-4.
 34 36  0  0  1  0            999 V2000
    5.0886    3.6582   22.9049 C   0  0  0  0  0  0
    5.1722    2.7552   21.6800 C   0  0  0  0  0  0
    4.1907    2.8870   20.6944 C   0  0  0  0  0  0
    4.2490    2.1343   19.5272 C   0  0  0  0  0  0
    5.2527    1.2191   19.3820 N   0  0  0  0  0  0
    5.5698    0.3473   18.3713 C   0  0  0  0  0  0
    6.6028   -0.3916   18.7077 N   0  0  0  0  0  0
    7.0540    0.0153   19.9483 N   0  0  0  0  0  0
    6.2385    1.0196   20.3606 C   0  0  0  0  0  0
    6.2314    1.8387   21.5185 C   0  0  0  0  0  0
    7.2397    1.7749   22.4975 N   0  0  0  0  0  0
    8.5625    1.8487   22.2455 C   0  0  0  0  0  0
    9.0380    1.9455   21.1094 O   0  0  0  0  0  0
    9.4730    1.8341   23.4871 C   0  0  0  0  0  0
   10.9417    2.0739   23.1499 C   0  0  0  0  0  0
   11.8438    1.0052   23.1178 C   0  0  0  0  0  0
   13.1598    1.2151   22.7067 C   0  0  0  0  0  0
   13.5695    2.4891   22.3080 C   0  0  0  0  0  0
   12.6843    3.5641   22.3647 C   0  0  0  0  0  0
   13.2018    5.1468   21.9092 Cl  0  0  0  0  0  0
   11.3733    3.3558   22.7872 C   0  0  0  0  0  0
    4.2582    4.3633   22.8456 H   0  0  0  0  0  0
    4.9708    3.0613   23.8102 H   0  0  0  0  0  0
    6.0069    4.2378   23.0042 H   0  0  0  0  0  0
    3.4104    3.6270   20.8022 H   0  0  0  0  0  0
    3.5524    2.2409   18.7074 H   0  0  0  0  0  0
    4.9948    0.2825   17.4613 H   0  0  0  0  0  0
    6.9356    1.8053   23.4576 H   0  0  0  0  0  0
    9.3561    0.8724   23.9884 H   0  0  0  0  0  0
    9.1391    2.6038   24.1844 H   0  0  0  0  0  0
   11.5224    0.0077   23.3834 H   0  0  0  0  0  0
   13.8544    0.3884   22.6678 H   0  0  0  0  0  0
   14.5856    2.6445   21.9721 H   0  0  0  0  0  0
   10.6780    4.1837   22.7895 H   0  0  0  0  0  0
  1  2  1  0  0  0
  1 22  1  0  0  0
  1 23  1  0  0  0
  1 24  1  0  0  0
  2 10  2  0  0  0
  2  3  1  0  0  0
  3  4  2  0  0  0
  3 25  1  0  0  0
  4  5  1  0  0  0
  4 26  1  0  0  0
  5  9  1  0  0  0
  5  6  1  0  0  0
  6  7  2  0  0  0
  6 27  1  0  0  0
  7  8  1  0  0  0
  8  9  2  0  0  0
  9 10  1  0  0  0
 10 11  1  0  0  0
 11 12  1  0  0  0
 11 28  1  0  0  0
 12 13  2  0  0  0
 12 14  1  0  0  0
 14 15  1  0  0  0
 14 29  1  0  0  0
 14 30  1  0  0  0
 15 21  2  0  0  0
 15 16  1  0  0  0
 16 17  2  0  0  0
 16 31  1  0  0  0
 17 18  1  0  0  0
 17 32  1  0  0  0
 18 19  2  0  0  0
 18 33  1  0  0  0
 19 20  1  0  0  0
 19 21  1  0  0  0
 21 34  1  0  0  0
M  END
> <r_i_docking_score>
-6.62975396716045

$$$$
ligprep_5.maegz:281
                    3D
 Schrodinger Suite 2020-4.
 40 43  0  0  1  0            999 V2000
    2.0577   -8.0492   23.9206 C   0  0  0  0  0  0
    3.1075   -7.7052   24.8186 O   0  0  0  0  0  0
    3.9904   -6.7008   24.4758 C   0  0  0  0  0  0
    4.9199   -6.3461   25.4577 C   0  0  0  0  0  0
    5.8911   -5.3654   25.2476 C   0  0  0  0  0  0
    5.9247   -4.7171   24.0023 C   0  0  0  0  0  0
    6.7019   -3.7132   23.3508 C   0  0  0  0  0  0
    7.7804   -3.1204   23.9803 N   0  0  0  0  0  0
    8.4627   -2.0247   23.5826 C   0  0  0  0  0  0
    8.1885   -1.3557   22.5844 O   0  0  0  0  0  0
    9.6311   -1.6152   24.5194 C   0  0  2  0  0  0
    9.1363   -0.6121   25.5964 C   0  0  0  0  0  0
    9.1438    0.8297   25.0584 C   0  0  0  0  0  0
   10.4779    1.2032   24.7072 O   0  0  0  0  0  0
   11.1339    0.3372   23.8505 C   0  0  0  0  0  0
   12.2190    0.8826   23.1629 C   0  0  0  0  0  0
   12.9808    0.0798   22.3159 C   0  0  0  0  0  0
   12.6473   -1.2618   22.1493 C   0  0  0  0  0  0
   13.5695   -2.2524   21.0825 Cl  0  0  0  0  0  0
   11.5690   -1.8083   22.8429 C   0  0  0  0  0  0
   10.8038   -1.0290   23.7237 C   0  0  0  0  0  0
    6.2607   -3.4725   22.1289 N   0  0  0  0  0  0
    5.1720   -4.3262   21.9080 O   0  0  0  0  0  0
    4.9787   -5.0707   23.0328 C   0  0  0  0  0  0
    4.0021   -6.0493   23.2318 C   0  0  0  0  0  0
    1.4387   -8.8218   24.3755 H   0  0  0  0  0  0
    1.4149   -7.1945   23.7084 H   0  0  0  0  0  0
    2.4383   -8.4496   22.9825 H   0  0  0  0  0  0
    4.8934   -6.8518   26.4095 H   0  0  0  0  0  0
    6.6012   -5.1231   26.0239 H   0  0  0  0  0  0
    8.0294   -3.5260   24.8669 H   0  0  0  0  0  0
    9.9262   -2.5429   25.0111 H   0  0  0  0  0  0
    9.7924   -0.6483   26.4681 H   0  0  0  0  0  0
    8.1348   -0.8600   25.9558 H   0  0  0  0  0  0
    8.7703    1.5222   25.8128 H   0  0  0  0  0  0
    8.4888    0.9126   24.1882 H   0  0  0  0  0  0
   12.4716    1.9245   23.2888 H   0  0  0  0  0  0
   13.8166    0.5041   21.7802 H   0  0  0  0  0  0
   11.3282   -2.8517   22.6997 H   0  0  0  0  0  0
    3.3053   -6.2935   22.4464 H   0  0  0  0  0  0
  1  2  1  0  0  0
  1 26  1  0  0  0
  1 27  1  0  0  0
  1 28  1  0  0  0
  2  3  1  0  0  0
  3 25  2  0  0  0
  3  4  1  0  0  0
  4  5  2  0  0  0
  4 29  1  0  0  0
  5  6  1  0  0  0
  5 30  1  0  0  0
  6 24  2  0  0  0
  6  7  1  0  0  0
  7  8  1  0  0  0
  7 22  2  0  0  0
  8  9  1  0  0  0
  8 31  1  0  0  0
  9 10  2  0  0  0
  9 11  1  0  0  0
 11 21  1  0  0  0
 11 12  1  0  0  0
 11 32  1  0  0  0
 12 13  1  0  0  0
 12 33  1  0  0  0
 12 34  1  0  0  0
 13 14  1  0  0  0
 13 35  1  0  0  0
 13 36  1  0  0  0
 14 15  1  0  0  0
 15 21  2  0  0  0
 15 16  1  0  0  0
 16 17  2  0  0  0
 16 37  1  0  0  0
 17 18  1  0  0  0
 17 38  1  0  0  0
 18 19  1  0  0  0
 18 20  2  0  0  0
 20 21  1  0  0  0
 20 39  1  0  0  0
 22 23  1  0  0  0
 23 24  1  0  0  0
 24 25  1  0  0  0
 25 40  1  0  0  0
M  END
> <r_i_docking_score>
-6.19710527565936

$$$$
ligprep_5.maegz:282
                    3D
 Schrodinger Suite 2020-4.
 45 48  0  0  1  0            999 V2000
   11.5161    0.3457   24.7079 O   0  0  0  0  0  0
   11.3913    0.0601   23.5215 C   0  0  0  0  0  0
   10.9783   -1.3691   23.1389 C   0  0  0  0  0  0
    9.4843   -1.5959   23.3730 C   0  0  0  0  0  0
    8.9290   -1.4790   24.6536 C   0  0  0  0  0  0
    7.5545   -1.6096   24.8437 C   0  0  0  0  0  0
    6.8873   -1.4479   26.4277 Cl  0  0  0  0  0  0
    6.7206   -1.8553   23.7526 C   0  0  0  0  0  0
    7.2620   -1.9991   22.4706 C   0  0  0  0  0  0
    6.3472   -2.2567   21.2755 C   0  0  0  0  0  0
    6.0595   -1.0380   20.3427 C   0  0  2  0  0  0
    7.2622   -0.4736   19.5408 C   0  0  0  0  0  0
    7.1698    0.7419   20.4889 C   0  0  0  0  0  0
    7.8690    1.7262   20.7080 O   0  0  0  0  0  0
    5.9726    0.2789   21.0200 N   0  0  0  0  0  0
    8.6469   -1.8947   22.2938 C   0  0  0  0  0  0
   11.5798    0.9467   22.5292 N   0  0  0  0  0  0
   11.9026    2.3012   22.7300 C   0  0  0  0  0  0
   13.1544    2.7547   22.3076 C   0  0  0  0  0  0
   13.5696    4.0386   22.4104 N   0  0  0  0  0  0
   12.7237    4.9265   22.9740 C   0  0  0  0  0  0
   11.4311    4.6091   23.4436 C   0  0  0  0  0  0
   10.5718    5.5792   24.0129 C   0  0  0  0  0  0
    9.2970    5.2157   24.4388 C   0  0  0  0  0  0
    8.8549    3.9046   24.3055 C   0  0  0  0  0  0
    9.6779    2.9308   23.7471 C   0  0  0  0  0  0
   10.9935    3.2516   23.3097 C   0  0  0  0  0  0
   11.5514   -2.0785   23.7369 H   0  0  0  0  0  0
   11.2369   -1.5688   22.0978 H   0  0  0  0  0  0
    9.5606   -1.2568   25.5029 H   0  0  0  0  0  0
    5.6542   -1.9291   23.9073 H   0  0  0  0  0  0
    5.3966   -2.6326   21.6545 H   0  0  0  0  0  0
    6.7645   -3.0863   20.7079 H   0  0  0  0  0  0
    5.1773   -1.2507   19.7328 H   0  0  0  0  0  0
    7.0597   -0.2307   18.4950 H   0  0  0  0  0  0
    8.1922   -1.0307   19.6137 H   0  0  0  0  0  0
    5.5181    0.5204   21.8905 H   0  0  0  0  0  0
    9.0756   -2.0157   21.3110 H   0  0  0  0  0  0
   11.6224    0.5970   21.5842 H   0  0  0  0  0  0
   13.8623    2.0762   21.8551 H   0  0  0  0  0  0
   13.0922    5.9395   23.0600 H   0  0  0  0  0  0
   10.9047    6.6037   24.1062 H   0  0  0  0  0  0
    8.6394    5.9594   24.8663 H   0  0  0  0  0  0
    7.8592    3.6391   24.6287 H   0  0  0  0  0  0
    9.3072    1.9221   23.6418 H   0  0  0  0  0  0
  1  2  2  0  0  0
  2  3  1  0  0  0
  2 17  1  0  0  0
  3  4  1  0  0  0
  3 28  1  0  0  0
  3 29  1  0  0  0
  4 16  2  0  0  0
  4  5  1  0  0  0
  5  6  2  0  0  0
  5 30  1  0  0  0
  6  7  1  0  0  0
  6  8  1  0  0  0
  8  9  2  0  0  0
  8 31  1  0  0  0
  9 10  1  0  0  0
  9 16  1  0  0  0
 10 11  1  0  0  0
 10 32  1  0  0  0
 10 33  1  0  0  0
 11 15  1  0  0  0
 11 12  1  0  0  0
 11 34  1  0  0  0
 12 13  1  0  0  0
 12 35  1  0  0  0
 12 36  1  0  0  0
 13 14  2  0  0  0
 13 15  1  0  0  0
 15 37  1  0  0  0
 16 38  1  0  0  0
 17 18  1  0  0  0
 17 39  1  0  0  0
 18 27  2  0  0  0
 18 19  1  0  0  0
 19 20  2  0  0  0
 19 40  1  0  0  0
 20 21  1  0  0  0
 21 22  2  0  0  0
 21 41  1  0  0  0
 22 27  1  0  0  0
 22 23  1  0  0  0
 23 24  2  0  0  0
 23 42  1  0  0  0
 24 25  1  0  0  0
 24 43  1  0  0  0
 25 26  2  0  0  0
 25 44  1  0  0  0
 26 27  1  0  0  0
 26 45  1  0  0  0
M  END
> <r_i_docking_score>
-6.07499520896134

$$$$
ligprep_5.maegz:283
                    3D
 Schrodinger Suite 2020-4.
 42 45  0  0  1  0            999 V2000
   11.1867    5.4181   23.8762 C   0  0  0  0  0  0
   10.9349    3.9955   23.3582 C   0  0  2  0  0  0
    9.9506    3.2024   24.2497 C   0  0  0  0  0  0
    9.7443    1.7543   23.7576 C   0  0  1  0  0  0
    8.7467    1.7722   22.5775 C   0  0  0  0  0  0
    9.1501    1.9473   21.4228 O   0  0  0  0  0  0
    7.4448    1.6608   22.9156 N   0  0  0  0  0  0
    6.3712    1.8510   22.0363 C   0  0  0  0  0  0
    5.3967    2.7773   22.4195 C   0  0  0  0  0  0
    4.3748    3.1715   21.6261 N   0  0  0  0  0  0
    4.3164    2.6439   20.3847 C   0  0  0  0  0  0
    5.2063    1.6662   19.8894 C   0  0  0  0  0  0
    5.1146    1.1469   18.5830 C   0  0  0  0  0  0
    5.9697    0.1372   18.1678 C   0  0  0  0  0  0
    6.9366   -0.3673   19.0239 C   0  0  0  0  0  0
    7.0817    0.1496   20.3051 C   0  0  0  0  0  0
    6.2419    1.2071   20.7592 C   0  0  0  0  0  0
   11.0701    1.1418   23.3160 C   0  0  0  0  0  0
   11.1999   -0.2336   23.0838 C   0  0  0  0  0  0
   12.3865   -0.7634   22.5845 C   0  0  0  0  0  0
   12.5307   -2.4531   22.3071 Cl  0  0  0  0  0  0
   13.4626    0.0721   22.3081 C   0  0  0  0  0  0
   13.3564    1.4415   22.5260 C   0  0  0  0  0  0
   12.1690    1.9733   23.0194 C   0  0  0  0  0  0
   12.1956    3.3329   23.2609 O   0  0  0  0  0  0
   10.2570    5.9790   23.9610 H   0  0  0  0  0  0
   11.6656    5.4059   24.8561 H   0  0  0  0  0  0
   11.8394    5.9645   23.1943 H   0  0  0  0  0  0
   10.5184    4.0822   22.3548 H   0  0  0  0  0  0
   10.3492    3.1475   25.2521 H   0  0  0  0  0  0
    9.0076    3.7467   24.3278 H   0  0  0  0  0  0
    9.2664    1.1645   24.5413 H   0  0  0  0  0  0
    7.2232    1.6825   23.8987 H   0  0  0  0  0  0
    5.4502    3.2773   23.3758 H   0  0  0  0  0  0
    3.5352    3.0284   19.7441 H   0  0  0  0  0  0
    4.3698    1.5300   17.9080 H   0  0  0  0  0  0
    5.8880   -0.2588   17.1652 H   0  0  0  0  0  0
    7.5914   -1.1520   18.6792 H   0  0  0  0  0  0
    7.8491   -0.2504   20.9498 H   0  0  0  0  0  0
   10.3651   -0.8931   23.2725 H   0  0  0  0  0  0
   14.3695   -0.3431   21.9111 H   0  0  0  0  0  0
   14.1934    2.0896   22.3108 H   0  0  0  0  0  0
  1  2  1  0  0  0
  1 26  1  0  0  0
  1 27  1  0  0  0
  1 28  1  0  0  0
  2  3  1  0  0  0
  2 25  1  0  0  0
  2 29  1  0  0  0
  3  4  1  0  0  0
  3 30  1  0  0  0
  3 31  1  0  0  0
  4  5  1  0  0  0
  4 18  1  0  0  0
  4 32  1  0  0  0
  5  6  2  0  0  0
  5  7  1  0  0  0
  7  8  1  0  0  0
  7 33  1  0  0  0
  8 17  2  0  0  0
  8  9  1  0  0  0
  9 10  2  0  0  0
  9 34  1  0  0  0
 10 11  1  0  0  0
 11 12  2  0  0  0
 11 35  1  0  0  0
 12 17  1  0  0  0
 12 13  1  0  0  0
 13 14  2  0  0  0
 13 36  1  0  0  0
 14 15  1  0  0  0
 14 37  1  0  0  0
 15 16  2  0  0  0
 15 38  1  0  0  0
 16 17  1  0  0  0
 16 39  1  0  0  0
 18 24  2  0  0  0
 18 19  1  0  0  0
 19 20  2  0  0  0
 19 40  1  0  0  0
 20 21  1  0  0  0
 20 22  1  0  0  0
 22 23  2  0  0  0
 22 41  1  0  0  0
 23 24  1  0  0  0
 23 42  1  0  0  0
 24 25  1  0  0  0
M  END
> <r_i_docking_score>
-6.61427751872966

$$$$
ligprep_5.maegz:284
                    3D
 Schrodinger Suite 2020-4.
 42 45  0  0  1  0            999 V2000
   11.1867    5.4181   23.8762 C   0  0  0  0  0  0
   10.9349    3.9955   23.3582 C   0  0  2  0  0  0
    9.9506    3.2024   24.2497 C   0  0  0  0  0  0
    9.7443    1.7543   23.7576 C   0  0  1  0  0  0
    8.7467    1.7722   22.5775 C   0  0  0  0  0  0
    9.1501    1.9473   21.4228 O   0  0  0  0  0  0
    7.4448    1.6608   22.9156 N   0  0  0  0  0  0
    6.3712    1.8510   22.0363 C   0  0  0  0  0  0
    5.3967    2.7773   22.4195 C   0  0  0  0  0  0
    4.3748    3.1715   21.6261 N   0  0  0  0  0  0
    4.3164    2.6439   20.3847 C   0  0  0  0  0  0
    5.2063    1.6662   19.8894 C   0  0  0  0  0  0
    5.1146    1.1469   18.5830 C   0  0  0  0  0  0
    5.9697    0.1372   18.1678 C   0  0  0  0  0  0
    6.9366   -0.3673   19.0239 C   0  0  0  0  0  0
    7.0817    0.1496   20.3051 C   0  0  0  0  0  0
    6.2419    1.2071   20.7592 C   0  0  0  0  0  0
   11.0701    1.1418   23.3160 C   0  0  0  0  0  0
   11.1999   -0.2336   23.0838 C   0  0  0  0  0  0
   12.3865   -0.7634   22.5845 C   0  0  0  0  0  0
   12.5307   -2.4531   22.3071 Cl  0  0  0  0  0  0
   13.4626    0.0721   22.3081 C   0  0  0  0  0  0
   13.3564    1.4415   22.5260 C   0  0  0  0  0  0
   12.1690    1.9733   23.0194 C   0  0  0  0  0  0
   12.1956    3.3329   23.2609 O   0  0  0  0  0  0
   10.2570    5.9790   23.9610 H   0  0  0  0  0  0
   11.6656    5.4059   24.8561 H   0  0  0  0  0  0
   11.8394    5.9645   23.1943 H   0  0  0  0  0  0
   10.5184    4.0822   22.3548 H   0  0  0  0  0  0
   10.3492    3.1475   25.2521 H   0  0  0  0  0  0
    9.0076    3.7467   24.3278 H   0  0  0  0  0  0
    9.2664    1.1645   24.5413 H   0  0  0  0  0  0
    7.2232    1.6825   23.8987 H   0  0  0  0  0  0
    5.4502    3.2773   23.3758 H   0  0  0  0  0  0
    3.5352    3.0284   19.7441 H   0  0  0  0  0  0
    4.3698    1.5300   17.9080 H   0  0  0  0  0  0
    5.8880   -0.2588   17.1652 H   0  0  0  0  0  0
    7.5914   -1.1520   18.6792 H   0  0  0  0  0  0
    7.8491   -0.2504   20.9498 H   0  0  0  0  0  0
   10.3651   -0.8931   23.2725 H   0  0  0  0  0  0
   14.3695   -0.3431   21.9111 H   0  0  0  0  0  0
   14.1934    2.0896   22.3108 H   0  0  0  0  0  0
  1  2  1  0  0  0
  1 26  1  0  0  0
  1 27  1  0  0  0
  1 28  1  0  0  0
  2  3  1  0  0  0
  2 25  1  0  0  0
  2 29  1  0  0  0
  3  4  1  0  0  0
  3 30  1  0  0  0
  3 31  1  0  0  0
  4  5  1  0  0  0
  4 18  1  0  0  0
  4 32  1  0  0  0
  5  6  2  0  0  0
  5  7  1  0  0  0
  7  8  1  0  0  0
  7 33  1  0  0  0
  8 17  2  0  0  0
  8  9  1  0  0  0
  9 10  2  0  0  0
  9 34  1  0  0  0
 10 11  1  0  0  0
 11 12  2  0  0  0
 11 35  1  0  0  0
 12 17  1  0  0  0
 12 13  1  0  0  0
 13 14  2  0  0  0
 13 36  1  0  0  0
 14 15  1  0  0  0
 14 37  1  0  0  0
 15 16  2  0  0  0
 15 38  1  0  0  0
 16 17  1  0  0  0
 16 39  1  0  0  0
 18 24  2  0  0  0
 18 19  1  0  0  0
 19 20  2  0  0  0
 19 40  1  0  0  0
 20 21  1  0  0  0
 20 22  1  0  0  0
 22 23  2  0  0  0
 22 41  1  0  0  0
 23 24  1  0  0  0
 23 42  1  0  0  0
 24 25  1  0  0  0
M  END
> <r_i_docking_score>
-6.61427751872966

$$$$
ligprep_5.maegz:285
                    3D
 Schrodinger Suite 2020-4.
 42 45  0  0  1  0            999 V2000
    7.5662   -4.5595   23.8411 C   0  0  0  0  0  0
    7.3691   -3.5723   22.6699 C   0  0  1  0  0  0
    6.0808   -3.8777   21.8761 C   0  0  0  0  0  0
    5.9699   -3.0380   20.7242 O   0  0  0  0  0  0
    6.0939   -1.6827   20.9578 C   0  0  0  0  0  0
    5.5961   -0.8512   19.9539 C   0  0  0  0  0  0
    5.6297    0.5329   20.1039 C   0  0  0  0  0  0
    6.1464    1.0820   21.2740 C   0  0  0  0  0  0
    6.1539    2.7901   21.5078 Cl  0  0  0  0  0  0
    6.6636    0.2476   22.2631 C   0  0  0  0  0  0
    6.7228   -1.1459   22.0971 C   0  0  0  0  0  0
    7.3642   -2.0843   23.1375 C   0  0  2  0  0  0
    8.7997   -1.5864   23.4591 C   0  0  0  0  0  0
    9.0863   -1.2817   24.6177 O   0  0  0  0  0  0
    9.6615   -1.4769   22.4258 N   0  0  0  0  0  0
   10.9383   -0.8990   22.4817 C   0  0  0  0  0  0
   12.0335   -1.7020   22.1515 C   0  0  0  0  0  0
   13.3076   -1.2505   22.0771 N   0  0  0  0  0  0
   13.5182    0.0590   22.3363 C   0  0  0  0  0  0
   12.5065    0.9867   22.6689 C   0  0  0  0  0  0
   12.7706    2.3656   22.8477 C   0  0  0  0  0  0
   11.7315    3.2509   23.1095 C   0  0  0  0  0  0
   10.4256    2.7898   23.2036 C   0  0  0  0  0  0
   10.1389    1.4399   23.0254 C   0  0  0  0  0  0
   11.1663    0.4974   22.7446 C   0  0  0  0  0  0
    6.7548   -4.4882   24.5662 H   0  0  0  0  0  0
    7.6027   -5.5910   23.4871 H   0  0  0  0  0  0
    8.5010   -4.3689   24.3737 H   0  0  0  0  0  0
    8.1931   -3.7402   21.9716 H   0  0  0  0  0  0
    5.2075   -3.7494   22.5189 H   0  0  0  0  0  0
    6.0793   -4.9162   21.5420 H   0  0  0  0  0  0
    5.1700   -1.2854   19.0649 H   0  0  0  0  0  0
    5.2345    1.1752   19.3294 H   0  0  0  0  0  0
    7.0324    0.6944   23.1724 H   0  0  0  0  0  0
    6.8027   -1.9847   24.0683 H   0  0  0  0  0  0
    9.4116   -1.9324   21.5613 H   0  0  0  0  0  0
   11.8950   -2.7469   21.9116 H   0  0  0  0  0  0
   14.5356    0.4055   22.2471 H   0  0  0  0  0  0
   13.7842    2.7281   22.7532 H   0  0  0  0  0  0
   11.9396    4.3042   23.2308 H   0  0  0  0  0  0
    9.6224    3.4836   23.4002 H   0  0  0  0  0  0
    9.1174    1.1152   23.0889 H   0  0  0  0  0  0
  1  2  1  0  0  0
  1 26  1  0  0  0
  1 27  1  0  0  0
  1 28  1  0  0  0
  2  3  1  0  0  0
  2 12  1  0  0  0
  2 29  1  0  0  0
  3  4  1  0  0  0
  3 30  1  0  0  0
  3 31  1  0  0  0
  4  5  1  0  0  0
  5 11  2  0  0  0
  5  6  1  0  0  0
  6  7  2  0  0  0
  6 32  1  0  0  0
  7  8  1  0  0  0
  7 33  1  0  0  0
  8  9  1  0  0  0
  8 10  2  0  0  0
 10 11  1  0  0  0
 10 34  1  0  0  0
 11 12  1  0  0  0
 12 13  1  0  0  0
 12 35  1  0  0  0
 13 14  2  0  0  0
 13 15  1  0  0  0
 15 16  1  0  0  0
 15 36  1  0  0  0
 16 25  2  0  0  0
 16 17  1  0  0  0
 17 18  2  0  0  0
 17 37  1  0  0  0
 18 19  1  0  0  0
 19 20  2  0  0  0
 19 38  1  0  0  0
 20 25  1  0  0  0
 20 21  1  0  0  0
 21 22  2  0  0  0
 21 39  1  0  0  0
 22 23  1  0  0  0
 22 40  1  0  0  0
 23 24  2  0  0  0
 23 41  1  0  0  0
 24 25  1  0  0  0
 24 42  1  0  0  0
M  END
> <r_i_docking_score>
-6.34114467990918

$$$$
ligprep_5.maegz:286
                    3D
 Schrodinger Suite 2020-4.
 42 44  0  0  1  0            999 V2000
   12.5145   -1.8492   22.2141 C   0  0  0  0  0  0
   11.8280   -0.9829   23.1082 O   0  0  0  0  0  0
   12.0743    0.3770   23.0604 C   0  0  0  0  0  0
   13.1637    0.9405   22.3748 C   0  0  0  0  0  0
   13.3122    2.3237   22.3077 C   0  0  0  0  0  0
   12.3754    3.1597   22.9007 C   0  0  0  0  0  0
   11.3129    2.6117   23.6118 C   0  0  0  0  0  0
   11.1704    1.2188   23.7283 C   0  0  0  0  0  0
   10.1861    0.6099   24.4880 O   0  0  0  0  0  0
    9.0763    1.3597   24.9851 C   0  0  0  0  0  0
    8.0164    1.5609   23.8846 C   0  0  0  0  0  0
    7.4579    0.2798   23.4476 N   0  0  0  0  0  0
    7.6505   -0.3124   22.2565 C   0  0  0  0  0  0
    8.2108    0.2181   21.2967 O   0  0  0  0  0  0
    7.1176   -1.7173   22.1783 C   0  0  0  0  0  0
    6.1742   -2.0370   21.1951 C   0  0  0  0  0  0
    5.5897   -3.2516   21.0653 N   0  0  0  0  0  0
    5.9669   -4.2163   21.9299 C   0  0  0  0  0  0
    6.9198   -4.0459   22.9544 C   0  0  0  0  0  0
    7.2685   -5.0935   23.8378 C   0  0  0  0  0  0
    8.2133   -4.8837   24.8370 C   0  0  0  0  0  0
    8.8347   -3.6510   24.9656 C   0  0  0  0  0  0
    8.5187   -2.6019   24.1067 C   0  0  0  0  0  0
    7.5316   -2.7591   23.0846 C   0  0  0  0  0  0
   12.1103   -2.8543   22.3252 H   0  0  0  0  0  0
   12.3727   -1.5525   21.1758 H   0  0  0  0  0  0
   13.5815   -1.8952   22.4279 H   0  0  0  0  0  0
   13.8961    0.3236   21.8766 H   0  0  0  0  0  0
   14.1531    2.7471   21.7769 H   0  0  0  0  0  0
   12.4845    4.2310   22.8323 H   0  0  0  0  0  0
   10.6251    3.2958   24.0793 H   0  0  0  0  0  0
    9.3769    2.2989   25.4494 H   0  0  0  0  0  0
    8.6416    0.7778   25.7981 H   0  0  0  0  0  0
    8.4594    2.1003   23.0426 H   0  0  0  0  0  0
    7.2092    2.1973   24.2521 H   0  0  0  0  0  0
    6.8680   -0.1997   24.1105 H   0  0  0  0  0  0
    5.8454   -1.2873   20.4880 H   0  0  0  0  0  0
    5.4869   -5.1774   21.8106 H   0  0  0  0  0  0
    6.7902   -6.0529   23.7301 H   0  0  0  0  0  0
    8.4688   -5.6866   25.5130 H   0  0  0  0  0  0
    9.5697   -3.5098   25.7411 H   0  0  0  0  0  0
    9.0342   -1.6622   24.2225 H   0  0  0  0  0  0
  1  2  1  0  0  0
  1 25  1  0  0  0
  1 26  1  0  0  0
  1 27  1  0  0  0
  2  3  1  0  0  0
  3  8  2  0  0  0
  3  4  1  0  0  0
  4  5  2  0  0  0
  4 28  1  0  0  0
  5  6  1  0  0  0
  5 29  1  0  0  0
  6  7  2  0  0  0
  6 30  1  0  0  0
  7  8  1  0  0  0
  7 31  1  0  0  0
  8  9  1  0  0  0
  9 10  1  0  0  0
 10 11  1  0  0  0
 10 32  1  0  0  0
 10 33  1  0  0  0
 11 12  1  0  0  0
 11 34  1  0  0  0
 11 35  1  0  0  0
 12 13  1  0  0  0
 12 36  1  0  0  0
 13 14  2  0  0  0
 13 15  1  0  0  0
 15 24  2  0  0  0
 15 16  1  0  0  0
 16 17  2  0  0  0
 16 37  1  0  0  0
 17 18  1  0  0  0
 18 19  2  0  0  0
 18 38  1  0  0  0
 19 24  1  0  0  0
 19 20  1  0  0  0
 20 21  2  0  0  0
 20 39  1  0  0  0
 21 22  1  0  0  0
 21 40  1  0  0  0
 22 23  2  0  0  0
 22 41  1  0  0  0
 23 24  1  0  0  0
 23 42  1  0  0  0
M  END
> <r_i_docking_score>
-6.17776426442544

$$$$
ligprep_5.maegz:287
                    3D
 Schrodinger Suite 2020-4.
 43 46  0  0  1  0            999 V2000
   13.5697    0.3470   23.1081 O   0  0  0  0  0  0
   12.4325    0.7758   22.9066 C   0  0  0  0  0  0
   12.2297    2.2776   22.9604 C   0  0  0  0  0  0
   13.1638    3.0894   22.3021 C   0  0  0  0  0  0
   13.1053    4.4383   22.2376 N   0  0  0  0  0  0
   12.0673    5.0398   22.8524 C   0  0  0  0  0  0
   11.0690    4.3648   23.5850 C   0  0  0  0  0  0
   10.0039    5.0522   24.2163 C   0  0  0  0  0  0
    9.0598    4.3470   24.9549 C   0  0  0  0  0  0
    9.1696    2.9705   25.1072 C   0  0  0  0  0  0
   10.2129    2.2724   24.5025 C   0  0  0  0  0  0
   11.1689    2.9393   23.6822 C   0  0  0  0  0  0
   11.3919   -0.0564   22.6200 N   0  0  0  0  0  0
   10.1437    0.3780   21.9767 C   0  0  0  0  0  0
    8.9343   -0.3668   22.5869 C   0  0  0  0  0  0
    9.0957   -1.8226   22.7560 N   0  0  0  0  0  0
    8.0189   -2.7093   22.7127 C   0  0  0  0  0  0
    6.9707   -2.4947   21.8093 C   0  0  0  0  0  0
    5.9346   -3.4120   21.6863 C   0  0  0  0  0  0
    5.9146   -4.5490   22.4876 C   0  0  0  0  0  0
    6.9311   -4.7713   23.4118 C   0  0  0  0  0  0
    7.9752   -3.8569   23.5201 C   0  0  0  0  0  0
   10.4040   -2.1761   23.3268 C   0  0  0  0  0  0
   11.6017   -1.5107   22.6232 C   0  0  0  0  0  0
   14.0030    2.6483   21.7812 H   0  0  0  0  0  0
   12.0288    6.1149   22.7697 H   0  0  0  0  0  0
    9.9270    6.1259   24.1195 H   0  0  0  0  0  0
    8.2475    4.8765   25.4310 H   0  0  0  0  0  0
    8.4483    2.4376   25.7106 H   0  0  0  0  0  0
   10.2924    1.2092   24.6640 H   0  0  0  0  0  0
    9.9834    1.4548   21.9641 H   0  0  0  0  0  0
   10.2010    0.0608   20.9409 H   0  0  0  0  0  0
    8.0368   -0.1101   22.0280 H   0  0  0  0  0  0
    8.7752    0.0086   23.5967 H   0  0  0  0  0  0
    6.9745   -1.6477   21.1417 H   0  0  0  0  0  0
    5.1690   -3.2337   20.9521 H   0  0  0  0  0  0
    5.1117   -5.2657   22.3907 H   0  0  0  0  0  0
    6.9171   -5.6521   24.0360 H   0  0  0  0  0  0
    8.7551   -4.0555   24.2395 H   0  0  0  0  0  0
   10.5566   -3.2533   23.3202 H   0  0  0  0  0  0
   10.3861   -1.8607   24.3706 H   0  0  0  0  0  0
   11.6505   -1.8790   21.5966 H   0  0  0  0  0  0
   12.5305   -1.8110   23.1081 H   0  0  0  0  0  0
  1  2  2  0  0  0
  2  3  1  0  0  0
  2 13  1  0  0  0
  3 12  2  0  0  0
  3  4  1  0  0  0
  4  5  2  0  0  0
  4 25  1  0  0  0
  5  6  1  0  0  0
  6  7  2  0  0  0
  6 26  1  0  0  0
  7 12  1  0  0  0
  7  8  1  0  0  0
  8  9  2  0  0  0
  8 27  1  0  0  0
  9 10  1  0  0  0
  9 28  1  0  0  0
 10 11  2  0  0  0
 10 29  1  0  0  0
 11 12  1  0  0  0
 11 30  1  0  0  0
 13 24  1  0  0  0
 13 14  1  0  0  0
 14 15  1  0  0  0
 14 31  1  0  0  0
 14 32  1  0  0  0
 15 16  1  0  0  0
 15 33  1  0  0  0
 15 34  1  0  0  0
 16 17  1  0  0  0
 16 23  1  0  0  0
 17 22  2  0  0  0
 17 18  1  0  0  0
 18 19  2  0  0  0
 18 35  1  0  0  0
 19 20  1  0  0  0
 19 36  1  0  0  0
 20 21  2  0  0  0
 20 37  1  0  0  0
 21 22  1  0  0  0
 21 38  1  0  0  0
 22 39  1  0  0  0
 23 24  1  0  0  0
 23 40  1  0  0  0
 23 41  1  0  0  0
 24 42  1  0  0  0
 24 43  1  0  0  0
M  END
> <r_i_docking_score>
-6.20647058808485

$$$$
ligprep_5.maegz:288
                    3D
 Schrodinger Suite 2020-4.
 44 47  0  0  1  0            999 V2000
    9.2683    1.7331   25.1079 O   0  0  0  0  0  0
    9.5156    1.2114   24.0180 C   0  0  0  0  0  0
   10.8425    1.3937   23.4457 C   0  0  0  0  0  0
   11.5925    0.2849   23.1840 C   0  0  0  0  0  0
   12.9270    0.2949   22.6077 C   0  0  0  0  0  0
   13.5693   -0.7048   22.3079 O   0  0  0  0  0  0
   13.4105    1.5310   22.3770 N   0  0  0  0  0  0
   12.7707    2.7434   22.6601 C   0  0  0  0  0  0
   13.4311    3.9466   22.4168 C   0  0  0  0  0  0
   12.8033    5.1536   22.7127 C   0  0  0  0  0  0
   11.5149    5.1578   23.2434 C   0  0  0  0  0  0
   10.8477    3.9551   23.4839 C   0  0  0  0  0  0
   11.4682    2.7302   23.1929 C   0  0  0  0  0  0
    8.5678    0.5143   23.3199 N   0  0  0  0  0  0
    8.7260    0.0143   21.9444 C   0  0  0  0  0  0
    8.2817   -1.4719   21.9072 C   0  0  0  0  0  0
    7.1263   -1.8690   22.7458 N   0  0  0  0  0  0
    6.6051   -3.1715   22.7065 C   0  0  0  0  0  0
    7.3798   -4.2359   22.2149 C   0  0  0  0  0  0
    6.9106   -5.5489   22.2030 C   0  0  0  0  0  0
    5.6437   -5.8347   22.6984 C   0  0  0  0  0  0
    4.8514   -4.8058   23.1988 C   0  0  0  0  0  0
    3.2851   -5.1663   23.8263 Cl  0  0  0  0  0  0
    5.3264   -3.4916   23.2023 C   0  0  0  0  0  0
    6.3692   -0.6893   23.2028 C   0  0  0  0  0  0
    7.2096    0.4185   23.8905 C   0  0  0  0  0  0
   11.1976   -0.7017   23.3848 H   0  0  0  0  0  0
   14.3291    1.5382   21.9645 H   0  0  0  0  0  0
   14.4364    3.9501   22.0230 H   0  0  0  0  0  0
   13.3213    6.0850   22.5396 H   0  0  0  0  0  0
   11.0290    6.0953   23.4712 H   0  0  0  0  0  0
    9.8497    3.9841   23.8967 H   0  0  0  0  0  0
    8.0347    0.5929   21.3290 H   0  0  0  0  0  0
    9.7069    0.1583   21.4910 H   0  0  0  0  0  0
    9.1259   -2.0325   22.3101 H   0  0  0  0  0  0
    8.0941   -1.7480   20.8686 H   0  0  0  0  0  0
    8.3699   -4.0588   21.8315 H   0  0  0  0  0  0
    7.5359   -6.3418   21.8192 H   0  0  0  0  0  0
    5.2795   -6.8525   22.7020 H   0  0  0  0  0  0
    4.6708   -2.7352   23.6011 H   0  0  0  0  0  0
    5.5406   -0.9398   23.8611 H   0  0  0  0  0  0
    5.9342   -0.2753   22.2907 H   0  0  0  0  0  0
    7.3189    0.0799   24.9242 H   0  0  0  0  0  0
    6.6669    1.3645   23.8472 H   0  0  0  0  0  0
  1  2  2  0  0  0
  2  3  1  0  0  0
  2 14  1  0  0  0
  3 13  1  0  0  0
  3  4  2  0  0  0
  4  5  1  0  0  0
  4 27  1  0  0  0
  5  6  2  0  0  0
  5  7  1  0  0  0
  7  8  1  0  0  0
  7 28  1  0  0  0
  8 13  2  0  0  0
  8  9  1  0  0  0
  9 10  2  0  0  0
  9 29  1  0  0  0
 10 11  1  0  0  0
 10 30  1  0  0  0
 11 12  2  0  0  0
 11 31  1  0  0  0
 12 13  1  0  0  0
 12 32  1  0  0  0
 14 26  1  0  0  0
 14 15  1  0  0  0
 15 16  1  0  0  0
 15 33  1  0  0  0
 15 34  1  0  0  0
 16 17  1  0  0  0
 16 35  1  0  0  0
 16 36  1  0  0  0
 17 18  1  0  0  0
 17 25  1  0  0  0
 18 24  2  0  0  0
 18 19  1  0  0  0
 19 20  2  0  0  0
 19 37  1  0  0  0
 20 21  1  0  0  0
 20 38  1  0  0  0
 21 22  2  0  0  0
 21 39  1  0  0  0
 22 23  1  0  0  0
 22 24  1  0  0  0
 24 40  1  0  0  0
 25 26  1  0  0  0
 25 41  1  0  0  0
 25 42  1  0  0  0
 26 43  1  0  0  0
 26 44  1  0  0  0
M  END
> <r_i_docking_score>
-6.66676325224034

$$$$
ligprep_5.maegz:289
                    3D
 Schrodinger Suite 2020-4.
 51 54  0  0  1  0            999 V2000
    8.5352    4.4718   23.6909 C   0  0  0  0  0  0
    9.7218    5.2069   23.4160 O   0  0  0  0  0  0
   10.8891    4.5205   23.1435 C   0  0  0  0  0  0
   11.9690    5.2833   22.7087 C   0  0  0  0  0  0
   13.1805    4.6873   22.3800 C   0  0  0  0  0  0
   13.3293    3.3117   22.5261 C   0  0  0  0  0  0
   12.2837    2.5161   23.0025 C   0  0  0  0  0  0
   12.6138    1.0535   23.3471 C   0  0  0  0  0  0
   11.5146    0.0944   23.5095 N   0  0  0  0  0  0
   10.8047    0.1401   24.7988 C   0  0  0  0  0  0
    9.6233   -0.8517   24.9262 C   0  0  0  0  0  0
    8.8603   -0.8903   23.6674 N   0  0  0  0  0  0
    7.5388   -0.5533   23.6544 C   0  0  0  0  0  0
    6.9475   -0.1347   24.6513 O   0  0  0  0  0  0
    6.8166   -0.7156   22.4063 C   0  0  0  0  0  0
    6.6465   -1.9897   21.9526 C   0  0  0  0  0  0
    5.9696   -2.3420   20.7229 C   0  0  0  0  0  0
    5.5696   -3.4684   20.4466 O   0  0  0  0  0  0
    5.7213   -1.2903   19.9172 N   0  0  0  0  0  0
    5.7772    0.0550   20.2933 C   0  0  0  0  0  0
    5.2057    1.0209   19.4687 C   0  0  0  0  0  0
    5.1697    2.3466   19.8924 C   0  0  0  0  0  0
    5.7180    2.7077   21.1237 C   0  0  0  0  0  0
    6.2918    1.7414   21.9521 C   0  0  0  0  0  0
    6.3140    0.3997   21.5501 C   0  0  0  0  0  0
    9.6550   -1.1974   22.4592 C   0  0  0  0  0  0
   10.7162   -0.0957   22.2975 C   0  0  0  0  0  0
   11.0550    3.1335   23.2850 C   0  0  0  0  0  0
    7.7021    5.1639   23.8128 H   0  0  0  0  0  0
    8.2882    3.8019   22.8657 H   0  0  0  0  0  0
    8.6225    3.8937   24.6118 H   0  0  0  0  0  0
   11.8486    6.3471   22.6154 H   0  0  0  0  0  0
   14.0092    5.2905   22.0390 H   0  0  0  0  0  0
   14.2910    2.8681   22.3078 H   0  0  0  0  0  0
   13.1694    1.0653   24.2854 H   0  0  0  0  0  0
   13.3106    0.6670   22.6013 H   0  0  0  0  0  0
   11.5244   -0.0612   25.5892 H   0  0  0  0  0  0
   10.4168    1.1380   24.9717 H   0  0  0  0  0  0
    9.0241   -0.6302   25.8113 H   0  0  0  0  0  0
   10.0119   -1.8580   25.0706 H   0  0  0  0  0  0
    7.0127   -2.8313   22.5251 H   0  0  0  0  0  0
    5.2516   -1.5313   19.0599 H   0  0  0  0  0  0
    4.7713    0.7550   18.5153 H   0  0  0  0  0  0
    4.7294    3.1113   19.2644 H   0  0  0  0  0  0
    5.6878    3.7450   21.4281 H   0  0  0  0  0  0
    6.6807    2.0325   22.9165 H   0  0  0  0  0  0
   10.1450   -2.1635   22.5899 H   0  0  0  0  0  0
    9.0738   -1.2797   21.5421 H   0  0  0  0  0  0
   11.3751   -0.3473   21.4669 H   0  0  0  0  0  0
   10.2169    0.8440   22.0600 H   0  0  0  0  0  0
   10.2188    2.5476   23.6147 H   0  0  0  0  0  0
  1  2  1  0  0  0
  1 29  1  0  0  0
  1 30  1  0  0  0
  1 31  1  0  0  0
  2  3  1  0  0  0
  3 28  2  0  0  0
  3  4  1  0  0  0
  4  5  2  0  0  0
  4 32  1  0  0  0
  5  6  1  0  0  0
  5 33  1  0  0  0
  6  7  2  0  0  0
  6 34  1  0  0  0
  7  8  1  0  0  0
  7 28  1  0  0  0
  8  9  1  0  0  0
  8 35  1  0  0  0
  8 36  1  0  0  0
  9 27  1  0  0  0
  9 10  1  0  0  0
 10 11  1  0  0  0
 10 37  1  0  0  0
 10 38  1  0  0  0
 11 12  1  0  0  0
 11 39  1  0  0  0
 11 40  1  0  0  0
 12 13  1  0  0  0
 12 26  1  0  0  0
 13 14  2  0  0  0
 13 15  1  0  0  0
 15 25  1  0  0  0
 15 16  2  0  0  0
 16 17  1  0  0  0
 16 41  1  0  0  0
 17 18  2  0  0  0
 17 19  1  0  0  0
 19 20  1  0  0  0
 19 42  1  0  0  0
 20 25  2  0  0  0
 20 21  1  0  0  0
 21 22  2  0  0  0
 21 43  1  0  0  0
 22 23  1  0  0  0
 22 44  1  0  0  0
 23 24  2  0  0  0
 23 45  1  0  0  0
 24 25  1  0  0  0
 24 46  1  0  0  0
 26 27  1  0  0  0
 26 47  1  0  0  0
 26 48  1  0  0  0
 27 49  1  0  0  0
 27 50  1  0  0  0
 28 51  1  0  0  0
M  END
> <r_i_docking_score>
-6.7051322340437

$$$$
ligprep_5.maegz:290
                    3D
 Schrodinger Suite 2020-4.
 47 50  0  0  1  0            999 V2000
    8.2581    1.8191   21.1465 O   0  0  0  0  0  0
    8.6680    1.7129   22.3052 C   0  0  0  0  0  0
   10.0842    1.8257   22.5627 C   0  0  0  0  0  0
   10.5761    3.0665   22.8336 C   0  0  0  0  0  0
   11.9707    3.3638   23.1004 C   0  0  0  0  0  0
   12.4069    4.4632   23.4230 O   0  0  0  0  0  0
   12.7777    2.2883   22.9951 N   0  0  0  0  0  0
   12.3916    0.9712   22.7081 C   0  0  0  0  0  0
   13.3498   -0.0326   22.5955 C   0  0  0  0  0  0
   12.9551   -1.3408   22.3079 C   0  0  0  0  0  0
   11.6034   -1.6498   22.1729 C   0  0  0  0  0  0
   10.6407   -0.6451   22.2686 C   0  0  0  0  0  0
   11.0304    0.6787   22.5199 C   0  0  0  0  0  0
    7.8667    1.4274   23.3695 N   0  0  0  0  0  0
    8.3477    1.2807   24.7684 C   0  0  0  0  0  0
    7.9932   -0.1362   25.2879 C   0  0  0  0  0  0
    6.5746   -0.4389   25.0758 N   0  0  0  0  0  0
    6.1240   -1.6935   25.6956 C   0  0  0  0  0  0
    6.6991   -2.9706   25.0854 C   0  0  0  0  0  0
    7.8493   -3.5549   25.6273 C   0  0  0  0  0  0
    8.3912   -4.7030   25.0488 C   0  0  0  0  0  0
    7.8060   -5.2527   23.9070 C   0  0  0  0  0  0
    6.6761   -4.6611   23.3446 C   0  0  0  0  0  0
    5.9694   -5.3249   21.9155 Cl  0  0  0  0  0  0
    6.1224   -3.5253   23.9362 C   0  0  0  0  0  0
    6.2013   -0.3165   23.6629 C   0  0  0  0  0  0
    6.4439    1.1149   23.1415 C   0  0  0  0  0  0
    9.9179    3.9250   22.8421 H   0  0  0  0  0  0
   13.7481    2.5024   23.1674 H   0  0  0  0  0  0
   14.3933    0.2007   22.7164 H   0  0  0  0  0  0
   13.6949   -2.1222   22.2104 H   0  0  0  0  0  0
   11.2993   -2.6658   21.9598 H   0  0  0  0  0  0
    9.6012   -0.9006   22.1206 H   0  0  0  0  0  0
    9.4168    1.4516   24.8919 H   0  0  0  0  0  0
    7.8414    2.0213   25.3882 H   0  0  0  0  0  0
    8.2405   -0.2180   26.3475 H   0  0  0  0  0  0
    8.5821   -0.8768   24.7438 H   0  0  0  0  0  0
    6.3756   -1.6569   26.7566 H   0  0  0  0  0  0
    5.0350   -1.7347   25.6406 H   0  0  0  0  0  0
    8.3194   -3.1253   26.5004 H   0  0  0  0  0  0
    9.2723   -5.1588   25.4777 H   0  0  0  0  0  0
    8.2356   -6.1344   23.4531 H   0  0  0  0  0  0
    5.2461   -3.0714   23.4963 H   0  0  0  0  0  0
    5.1691   -0.6058   23.5130 H   0  0  0  0  0  0
    6.8122   -1.0084   23.0799 H   0  0  0  0  0  0
    5.8105    1.8211   23.6797 H   0  0  0  0  0  0
    6.1562    1.1685   22.0899 H   0  0  0  0  0  0
  1  2  2  0  0  0
  2  3  1  0  0  0
  2 14  1  0  0  0
  3 13  1  0  0  0
  3  4  2  0  0  0
  4  5  1  0  0  0
  4 28  1  0  0  0
  5  6  2  0  0  0
  5  7  1  0  0  0
  7  8  1  0  0  0
  7 29  1  0  0  0
  8 13  2  0  0  0
  8  9  1  0  0  0
  9 10  2  0  0  0
  9 30  1  0  0  0
 10 11  1  0  0  0
 10 31  1  0  0  0
 11 12  2  0  0  0
 11 32  1  0  0  0
 12 13  1  0  0  0
 12 33  1  0  0  0
 14 27  1  0  0  0
 14 15  1  0  0  0
 15 16  1  0  0  0
 15 34  1  0  0  0
 15 35  1  0  0  0
 16 17  1  0  0  0
 16 36  1  0  0  0
 16 37  1  0  0  0
 17 18  1  0  0  0
 17 26  1  0  0  0
 18 19  1  0  0  0
 18 38  1  0  0  0
 18 39  1  0  0  0
 19 25  2  0  0  0
 19 20  1  0  0  0
 20 21  2  0  0  0
 20 40  1  0  0  0
 21 22  1  0  0  0
 21 41  1  0  0  0
 22 23  2  0  0  0
 22 42  1  0  0  0
 23 24  1  0  0  0
 23 25  1  0  0  0
 25 43  1  0  0  0
 26 27  1  0  0  0
 26 44  1  0  0  0
 26 45  1  0  0  0
 27 46  1  0  0  0
 27 47  1  0  0  0
M  END
> <r_i_docking_score>
-6.56467428402005

$$$$
ligprep_5.maegz:291
                    3D
 Schrodinger Suite 2020-4.
 50 53  0  0  1  0            999 V2000
    6.1650   -0.8650   22.5230 O   0  0  0  0  0  0
    7.2158   -1.4871   22.3815 C   0  0  0  0  0  0
    7.2795   -2.8724   22.7959 C   0  0  0  0  0  0
    6.8329   -3.8036   21.9083 C   0  0  0  0  0  0
    6.8374   -5.2359   22.1399 C   0  0  0  0  0  0
    6.3377   -6.0519   21.3781 O   0  0  0  0  0  0
    7.4225   -5.5988   23.3012 N   0  0  0  0  0  0
    7.8986   -4.7383   24.3003 C   0  0  0  0  0  0
    8.3941   -5.2528   25.4986 C   0  0  0  0  0  0
    8.8293   -4.3880   26.5013 C   0  0  0  0  0  0
    8.7640   -3.0079   26.3083 C   0  0  0  0  0  0
    8.2686   -2.4864   25.1136 C   0  0  0  0  0  0
    7.8333   -3.3466   24.0970 C   0  0  0  0  0  0
    8.3494   -0.9228   21.8810 N   0  0  0  0  0  0
    9.6426   -1.6228   21.7388 C   0  0  0  0  0  0
   10.6751   -0.9282   22.6573 C   0  0  0  0  0  0
   10.7492    0.5261   22.4439 N   0  0  0  0  0  0
   11.7044    1.0838   23.4097 C   0  0  0  0  0  0
   11.9740    2.5746   23.2441 C   0  0  0  0  0  0
   13.0025    3.0244   22.4112 C   0  0  0  0  0  0
   13.2686    4.3878   22.3069 C   0  0  0  0  0  0
   12.4848    5.3071   22.9979 C   0  0  0  0  0  0
   11.4174    4.8793   23.7919 C   0  0  0  0  0  0
   10.5534    5.9098   24.5159 C   0  0  0  0  0  0
   10.0205    6.7472   23.6259 F   0  0  0  0  0  0
    9.5584    5.3476   25.2077 F   0  0  0  0  0  0
   11.3119    6.6052   25.3659 F   0  0  0  0  0  0
   11.1689    3.5069   23.9078 C   0  0  0  0  0  0
    9.4205    1.1545   22.5550 C   0  0  0  0  0  0
    8.3863    0.5225   21.5969 C   0  0  0  0  0  0
    6.4398   -3.4977   20.9472 H   0  0  0  0  0  0
    7.4280   -6.5931   23.4490 H   0  0  0  0  0  0
    8.4447   -6.3155   25.6686 H   0  0  0  0  0  0
    9.2145   -4.7892   27.4297 H   0  0  0  0  0  0
    9.0937   -2.3387   27.0911 H   0  0  0  0  0  0
    8.2218   -1.4139   24.9848 H   0  0  0  0  0  0
    9.6023   -2.6890   21.9520 H   0  0  0  0  0  0
    9.9694   -1.5297   20.7080 H   0  0  0  0  0  0
   11.6562   -1.3752   22.4931 H   0  0  0  0  0  0
   10.3979   -1.1101   23.6983 H   0  0  0  0  0  0
   11.3557    0.8978   24.4278 H   0  0  0  0  0  0
   12.6581    0.5628   23.2982 H   0  0  0  0  0  0
   13.6179    2.3192   21.8717 H   0  0  0  0  0  0
   14.0847    4.7441   21.6960 H   0  0  0  0  0  0
   12.7086    6.3568   22.9127 H   0  0  0  0  0  0
   10.3556    3.1534   24.5277 H   0  0  0  0  0  0
    9.4828    2.2168   22.3295 H   0  0  0  0  0  0
    9.0716    1.0505   23.5846 H   0  0  0  0  0  0
    8.6914    0.6844   20.5632 H   0  0  0  0  0  0
    7.4179    1.0105   21.7138 H   0  0  0  0  0  0
  1  2  2  0  0  0
  2  3  1  0  0  0
  2 14  1  0  0  0
  3 13  1  0  0  0
  3  4  2  0  0  0
  4  5  1  0  0  0
  4 31  1  0  0  0
  5  6  2  0  0  0
  5  7  1  0  0  0
  7  8  1  0  0  0
  7 32  1  0  0  0
  8 13  2  0  0  0
  8  9  1  0  0  0
  9 10  2  0  0  0
  9 33  1  0  0  0
 10 11  1  0  0  0
 10 34  1  0  0  0
 11 12  2  0  0  0
 11 35  1  0  0  0
 12 13  1  0  0  0
 12 36  1  0  0  0
 14 30  1  0  0  0
 14 15  1  0  0  0
 15 16  1  0  0  0
 15 37  1  0  0  0
 15 38  1  0  0  0
 16 17  1  0  0  0
 16 39  1  0  0  0
 16 40  1  0  0  0
 17 18  1  0  0  0
 17 29  1  0  0  0
 18 19  1  0  0  0
 18 41  1  0  0  0
 18 42  1  0  0  0
 19 28  2  0  0  0
 19 20  1  0  0  0
 20 21  2  0  0  0
 20 43  1  0  0  0
 21 22  1  0  0  0
 21 44  1  0  0  0
 22 23  2  0  0  0
 22 45  1  0  0  0
 23 24  1  0  0  0
 23 28  1  0  0  0
 24 25  1  0  0  0
 24 26  1  0  0  0
 24 27  1  0  0  0
 28 46  1  0  0  0
 29 30  1  0  0  0
 29 47  1  0  0  0
 29 48  1  0  0  0
 30 49  1  0  0  0
 30 50  1  0  0  0
M  END
> <r_i_docking_score>
-7.07001330184172

$$$$
ligprep_5.maegz:292
                    3D
 Schrodinger Suite 2020-4.
 56 59  0  0  1  0            999 V2000
    9.2044    1.5471   21.1103 O   0  0  0  0  0  0
    8.7817    0.6938   21.8987 C   0  0  0  0  0  0
    9.6966    0.2308   23.0628 C   0  0  0  0  0  0
   11.1449    0.7212   22.9335 C   0  0  0  0  0  0
   12.1545   -0.1864   22.5961 C   0  0  0  0  0  0
   13.4266    0.1718   22.3079 N   0  0  0  0  0  0
   13.7097    1.4928   22.3081 C   0  0  0  0  0  0
   12.8086    2.5121   22.6889 C   0  0  0  0  0  0
   13.1697    3.8825   22.7080 C   0  0  0  0  0  0
   12.2492    4.8407   23.1205 C   0  0  0  0  0  0
   10.9653    4.4654   23.5018 C   0  0  0  0  0  0
   10.5752    3.1285   23.4649 C   0  0  0  0  0  0
   11.4841    2.1149   23.0466 C   0  0  0  0  0  0
    7.5185    0.1915   21.7957 N   0  0  0  0  0  0
    7.0409   -0.9653   22.5702 C   0  0  0  0  0  0
    7.1442   -2.2960   21.7932 C   0  0  0  0  0  0
    6.6850   -3.5428   22.5805 C   0  0  0  0  0  0
    5.1901   -3.4948   22.9797 C   0  0  0  0  0  0
    4.8051   -4.7216   23.8322 C   0  0  0  0  0  0
    5.1410   -6.0483   23.1143 C   0  0  0  0  0  0
    6.5920   -6.0871   22.5871 C   0  0  0  0  0  0
    6.9276   -4.8323   21.7607 C   0  0  0  0  0  0
    6.6870    0.6221   20.7473 C   0  0  0  0  0  0
    6.9613    0.2820   19.4161 C   0  0  0  0  0  0
    6.1328    0.7463   18.3982 C   0  0  0  0  0  0
    5.0221    1.5311   18.7078 C   0  0  0  0  0  0
    4.7309    1.8469   20.0315 C   0  0  0  0  0  0
    3.3213    2.7659   20.4124 Cl  0  0  0  0  0  0
    5.5698    1.4031   21.0507 C   0  0  0  0  0  0
    9.2825    0.5804   24.0087 H   0  0  0  0  0  0
    9.6971   -0.8600   23.1041 H   0  0  0  0  0  0
   11.9406   -1.2416   22.4974 H   0  0  0  0  0  0
   14.7170    1.7598   22.0243 H   0  0  0  0  0  0
   14.1714    4.1748   22.4258 H   0  0  0  0  0  0
   12.5325    5.8836   23.1429 H   0  0  0  0  0  0
   10.2558    5.2212   23.8055 H   0  0  0  0  0  0
    9.5652    2.8663   23.7392 H   0  0  0  0  0  0
    6.0006   -0.7800   22.8402 H   0  0  0  0  0  0
    7.5409   -1.0482   23.5355 H   0  0  0  0  0  0
    8.1841   -2.4383   21.4942 H   0  0  0  0  0  0
    6.5670   -2.2262   20.8694 H   0  0  0  0  0  0
    7.2783   -3.6115   23.4944 H   0  0  0  0  0  0
    4.5632   -3.4244   22.0905 H   0  0  0  0  0  0
    4.9706   -2.5861   23.5401 H   0  0  0  0  0  0
    3.7425   -4.6892   24.0744 H   0  0  0  0  0  0
    5.3348   -4.6825   24.7856 H   0  0  0  0  0  0
    4.4524   -6.1844   22.2794 H   0  0  0  0  0  0
    4.9662   -6.8911   23.7838 H   0  0  0  0  0  0
    6.7471   -6.9837   21.9850 H   0  0  0  0  0  0
    7.2863   -6.1515   23.4262 H   0  0  0  0  0  0
    7.9697   -4.8773   21.4447 H   0  0  0  0  0  0
    6.3580   -4.8095   20.8297 H   0  0  0  0  0  0
    7.8214   -0.3241   19.1701 H   0  0  0  0  0  0
    6.3611    0.5024   17.3726 H   0  0  0  0  0  0
    4.3808    1.8888   17.9181 H   0  0  0  0  0  0
    5.3408    1.6535   22.0761 H   0  0  0  0  0  0
  1  2  2  0  0  0
  2  3  1  0  0  0
  2 14  1  0  0  0
  3  4  1  0  0  0
  3 30  1  0  0  0
  3 31  1  0  0  0
  4 13  2  0  0  0
  4  5  1  0  0  0
  5  6  2  0  0  0
  5 32  1  0  0  0
  6  7  1  0  0  0
  7  8  2  0  0  0
  7 33  1  0  0  0
  8 13  1  0  0  0
  8  9  1  0  0  0
  9 10  2  0  0  0
  9 34  1  0  0  0
 10 11  1  0  0  0
 10 35  1  0  0  0
 11 12  2  0  0  0
 11 36  1  0  0  0
 12 13  1  0  0  0
 12 37  1  0  0  0
 14 15  1  0  0  0
 14 23  1  0  0  0
 15 16  1  0  0  0
 15 38  1  0  0  0
 15 39  1  0  0  0
 16 17  1  0  0  0
 16 40  1  0  0  0
 16 41  1  0  0  0
 17 22  1  0  0  0
 17 18  1  0  0  0
 17 42  1  0  0  0
 18 19  1  0  0  0
 18 43  1  0  0  0
 18 44  1  0  0  0
 19 20  1  0  0  0
 19 45  1  0  0  0
 19 46  1  0  0  0
 20 21  1  0  0  0
 20 47  1  0  0  0
 20 48  1  0  0  0
 21 22  1  0  0  0
 21 49  1  0  0  0
 21 50  1  0  0  0
 22 51  1  0  0  0
 22 52  1  0  0  0
 23 29  2  0  0  0
 23 24  1  0  0  0
 24 25  2  0  0  0
 24 53  1  0  0  0
 25 26  1  0  0  0
 25 54  1  0  0  0
 26 27  2  0  0  0
 26 55  1  0  0  0
 27 28  1  0  0  0
 27 29  1  0  0  0
 29 56  1  0  0  0
M  END
> <r_i_docking_score>
-6.47296067642594

$$$$
ligprep_5.maegz:293
                    3D
 Schrodinger Suite 2020-4.
 33 35  0  0  1  0            999 V2000
   11.1680   -0.2041   24.6610 O   0  0  0  0  0  0
   11.4141   -0.1855   23.4545 C   0  0  0  0  0  0
   12.5390    0.7177   22.9285 C   0  0  0  0  0  0
   12.2707    2.2304   22.9609 C   0  0  0  0  0  0
   13.1688    3.0919   22.3250 C   0  0  0  0  0  0
   12.9345    4.4672   22.3803 C   0  0  0  0  0  0
   14.0135    5.5531   21.6029 Cl  0  0  0  0  0  0
   11.8216    4.9575   23.0655 C   0  0  0  0  0  0
   10.9596    4.0378   23.6628 C   0  0  0  0  0  0
   11.1701    2.6986   23.6218 N   0  0  0  0  0  0
   10.7437   -0.9010   22.5317 N   0  0  0  0  0  0
    9.5925   -1.6655   22.7813 C   0  0  0  0  0  0
    9.6022   -2.7033   23.7218 C   0  0  0  0  0  0
    8.5359   -3.4986   23.9779 N   0  0  0  0  0  0
    7.4028   -3.2680   23.2769 C   0  0  0  0  0  0
    7.2550   -2.2553   22.3044 C   0  0  0  0  0  0
    6.0480   -2.0395   21.5945 C   0  0  0  0  0  0
    5.9705   -1.0228   20.6465 C   0  0  0  0  0  0
    7.0632   -0.2015   20.3950 C   0  0  0  0  0  0
    8.2569   -0.3857   21.0837 C   0  0  0  0  0  0
    8.3885   -1.4226   22.0489 C   0  0  0  0  0  0
   12.8043    0.4394   21.9109 H   0  0  0  0  0  0
   13.4422    0.5188   23.5072 H   0  0  0  0  0  0
   14.0387    2.7055   21.8143 H   0  0  0  0  0  0
   11.6210    6.0187   23.1143 H   0  0  0  0  0  0
   10.0740    4.3688   24.1880 H   0  0  0  0  0  0
   10.9823   -0.7787   21.5600 H   0  0  0  0  0  0
   10.4954   -2.9263   24.2884 H   0  0  0  0  0  0
    6.5681   -3.9167   23.4983 H   0  0  0  0  0  0
    5.1890   -2.6632   21.7967 H   0  0  0  0  0  0
    5.0527   -0.8523   20.1023 H   0  0  0  0  0  0
    6.9788    0.5888   19.6620 H   0  0  0  0  0  0
    9.0868    0.2719   20.8920 H   0  0  0  0  0  0
  1  2  2  0  0  0
  2  3  1  0  0  0
  2 11  1  0  0  0
  3  4  1  0  0  0
  3 22  1  0  0  0
  3 23  1  0  0  0
  4 10  2  0  0  0
  4  5  1  0  0  0
  5  6  2  0  0  0
  5 24  1  0  0  0
  6  7  1  0  0  0
  6  8  1  0  0  0
  8  9  2  0  0  0
  8 25  1  0  0  0
  9 10  1  0  0  0
  9 26  1  0  0  0
 11 12  1  0  0  0
 11 27  1  0  0  0
 12 21  2  0  0  0
 12 13  1  0  0  0
 13 14  2  0  0  0
 13 28  1  0  0  0
 14 15  1  0  0  0
 15 16  2  0  0  0
 15 29  1  0  0  0
 16 21  1  0  0  0
 16 17  1  0  0  0
 17 18  2  0  0  0
 17 30  1  0  0  0
 18 19  1  0  0  0
 18 31  1  0  0  0
 19 20  2  0  0  0
 19 32  1  0  0  0
 20 21  1  0  0  0
 20 33  1  0  0  0
M  END
> <r_i_docking_score>
-6.18193599881579

$$$$
ligprep_5.maegz:294
                    3D
 Schrodinger Suite 2020-4.
 44 47  0  0  1  0            999 V2000
    9.9869   -1.4796   24.3082 O   0  0  0  0  0  0
    9.2855   -0.4923   24.0888 C   0  0  0  0  0  0
    7.7740   -0.5830   24.3296 C   0  0  0  0  0  0
    7.0983   -1.4118   23.2429 C   0  0  0  0  0  0
    6.6807   -2.7220   23.5049 C   0  0  0  0  0  0
    6.1169   -3.4951   22.4896 C   0  0  0  0  0  0
    5.6222   -5.1186   22.8027 Cl  0  0  0  0  0  0
    5.9696   -2.9625   21.2106 C   0  0  0  0  0  0
    6.3723   -1.6537   20.9355 C   0  0  0  0  0  0
    6.2619   -1.1111   19.5142 C   0  0  0  0  0  0
    5.5896    0.2392   19.3685 C   0  0  0  0  0  0
    5.5731    1.1467   18.3271 C   0  0  0  0  0  0
    4.7693    2.2063   18.7540 C   0  0  0  0  0  0
    4.2686    2.0014   19.9463 N   0  0  0  0  0  0
    4.7696    0.8174   20.3070 N   0  0  0  0  0  0
    6.9405   -0.8848   21.9556 C   0  0  0  0  0  0
    9.7403    0.6929   23.6291 N   0  0  0  0  0  0
   11.0448    1.0365   23.2150 C   0  0  0  0  0  0
   11.9771    0.0802   22.7743 C   0  0  0  0  0  0
   13.2220    0.3768   22.3397 N   0  0  0  0  0  0
   13.5699    1.6796   22.3081 C   0  0  0  0  0  0
   12.7421    2.7473   22.7081 C   0  0  0  0  0  0
   13.1701    4.0969   22.6708 C   0  0  0  0  0  0
   12.3201    5.1093   23.1031 C   0  0  0  0  0  0
   11.0418    4.8088   23.5597 C   0  0  0  0  0  0
   10.5929    3.4904   23.6031 C   0  0  0  0  0  0
   11.4336    2.4196   23.1816 C   0  0  0  0  0  0
    7.3205    0.4090   24.3557 H   0  0  0  0  0  0
    7.6087   -1.0237   25.3134 H   0  0  0  0  0  0
    6.8114   -3.1483   24.4888 H   0  0  0  0  0  0
    5.5698   -3.5787   20.4209 H   0  0  0  0  0  0
    5.7692   -1.8375   18.8665 H   0  0  0  0  0  0
    7.2818   -1.0193   19.1374 H   0  0  0  0  0  0
    6.0827    1.0591   17.3778 H   0  0  0  0  0  0
    4.5357    3.1007   18.1908 H   0  0  0  0  0  0
    4.5079    0.3842   21.1886 H   0  0  0  0  0  0
    7.2798    0.1178   21.7388 H   0  0  0  0  0  0
    9.0667    1.4416   23.5750 H   0  0  0  0  0  0
   11.7377   -0.9720   22.7364 H   0  0  0  0  0  0
   14.5647    1.8914   21.9438 H   0  0  0  0  0  0
   14.1649    4.3320   22.3192 H   0  0  0  0  0  0
   12.6549    6.1362   23.0878 H   0  0  0  0  0  0
   10.3904    5.6073   23.8845 H   0  0  0  0  0  0
    9.5988    3.2868   23.9697 H   0  0  0  0  0  0
  1  2  2  0  0  0
  2  3  1  0  0  0
  2 17  1  0  0  0
  3  4  1  0  0  0
  3 28  1  0  0  0
  3 29  1  0  0  0
  4 16  2  0  0  0
  4  5  1  0  0  0
  5  6  2  0  0  0
  5 30  1  0  0  0
  6  7  1  0  0  0
  6  8  1  0  0  0
  8  9  2  0  0  0
  8 31  1  0  0  0
  9 10  1  0  0  0
  9 16  1  0  0  0
 10 11  1  0  0  0
 10 32  1  0  0  0
 10 33  1  0  0  0
 11 15  1  0  0  0
 11 12  2  0  0  0
 12 13  1  0  0  0
 12 34  1  0  0  0
 13 14  2  0  0  0
 13 35  1  0  0  0
 14 15  1  0  0  0
 15 36  1  0  0  0
 16 37  1  0  0  0
 17 18  1  0  0  0
 17 38  1  0  0  0
 18 27  2  0  0  0
 18 19  1  0  0  0
 19 20  2  0  0  0
 19 39  1  0  0  0
 20 21  1  0  0  0
 21 22  2  0  0  0
 21 40  1  0  0  0
 22 27  1  0  0  0
 22 23  1  0  0  0
 23 24  2  0  0  0
 23 41  1  0  0  0
 24 25  1  0  0  0
 24 42  1  0  0  0
 25 26  2  0  0  0
 25 43  1  0  0  0
 26 27  1  0  0  0
 26 44  1  0  0  0
M  END
> <r_i_docking_score>
-6.91346844973937

$$$$
ligprep_5.maegz:295
                    3D
 Schrodinger Suite 2020-4.
 42 45  0  0  1  0            999 V2000
    9.1448    0.6265   24.9573 C   0  0  0  0  0  0
    9.5746    1.6907   23.9036 C   0  0  1  0  0  0
    8.5878    1.6996   22.6955 C   0  0  0  0  0  0
    9.0010    1.9440   21.5543 O   0  0  0  0  0  0
    7.2775    1.5366   22.9824 N   0  0  0  0  0  0
    6.2399    1.7710   22.0749 C   0  0  0  0  0  0
    5.2758    2.7152   22.4405 C   0  0  0  0  0  0
    4.2921    3.1459   21.6186 N   0  0  0  0  0  0
    4.2630    2.6322   20.3693 C   0  0  0  0  0  0
    5.1541    1.6453   19.8892 C   0  0  0  0  0  0
    5.0976    1.1493   18.5756 C   0  0  0  0  0  0
    5.9698    0.1574   18.1510 C   0  0  0  0  0  0
    6.9085   -0.3698   19.0255 C   0  0  0  0  0  0
    7.0048    0.1080   20.3276 C   0  0  0  0  0  0
    6.1532    1.1571   20.7811 C   0  0  0  0  0  0
    9.5170    3.1135   24.5253 C   0  0  0  0  0  0
   10.2934    4.1570   23.7028 C   0  0  0  0  0  0
   11.6628    3.7778   23.6142 O   0  0  0  0  0  0
   11.9025    2.4796   23.2066 C   0  0  0  0  0  0
   13.1701    2.2662   22.6835 C   0  0  0  0  0  0
   13.5696    0.9880   22.3079 C   0  0  0  0  0  0
   12.6882   -0.0796   22.4320 C   0  0  0  0  0  0
   13.1685   -1.6531   21.9078 Cl  0  0  0  0  0  0
   11.4129    0.1340   22.9559 C   0  0  0  0  0  0
   10.9940    1.4128   23.3690 C   0  0  0  0  0  0
    9.0167   -0.3660   24.5237 H   0  0  0  0  0  0
    9.8935    0.5353   25.7457 H   0  0  0  0  0  0
    8.2077    0.8873   25.4508 H   0  0  0  0  0  0
    7.0237    1.5129   23.9575 H   0  0  0  0  0  0
    5.3064    3.1950   23.4079 H   0  0  0  0  0  0
    3.5087    3.0366   19.7106 H   0  0  0  0  0  0
    4.3692    1.5650   17.9081 H   0  0  0  0  0  0
    5.9242   -0.2018   17.1296 H   0  0  0  0  0  0
    7.5784   -1.1431   18.6810 H   0  0  0  0  0  0
    7.7486   -0.3080   20.9888 H   0  0  0  0  0  0
    9.9689    3.0728   25.5080 H   0  0  0  0  0  0
    8.4915    3.4516   24.6914 H   0  0  0  0  0  0
   10.2345    5.1367   24.1776 H   0  0  0  0  0  0
    9.8637    4.2586   22.7069 H   0  0  0  0  0  0
   13.8592    3.0928   22.5885 H   0  0  0  0  0  0
   14.5588    0.8364   21.9067 H   0  0  0  0  0  0
   10.7366   -0.7045   23.0261 H   0  0  0  0  0  0
  1  2  1  0  0  0
  1 26  1  0  0  0
  1 27  1  0  0  0
  1 28  1  0  0  0
  2 25  1  0  0  0
  2  3  1  0  0  0
  2 16  1  0  0  0
  3  4  2  0  0  0
  3  5  1  0  0  0
  5  6  1  0  0  0
  5 29  1  0  0  0
  6 15  2  0  0  0
  6  7  1  0  0  0
  7  8  2  0  0  0
  7 30  1  0  0  0
  8  9  1  0  0  0
  9 10  2  0  0  0
  9 31  1  0  0  0
 10 15  1  0  0  0
 10 11  1  0  0  0
 11 12  2  0  0  0
 11 32  1  0  0  0
 12 13  1  0  0  0
 12 33  1  0  0  0
 13 14  2  0  0  0
 13 34  1  0  0  0
 14 15  1  0  0  0
 14 35  1  0  0  0
 16 17  1  0  0  0
 16 36  1  0  0  0
 16 37  1  0  0  0
 17 18  1  0  0  0
 17 38  1  0  0  0
 17 39  1  0  0  0
 18 19  1  0  0  0
 19 25  2  0  0  0
 19 20  1  0  0  0
 20 21  2  0  0  0
 20 40  1  0  0  0
 21 22  1  0  0  0
 21 41  1  0  0  0
 22 23  1  0  0  0
 22 24  2  0  0  0
 24 25  1  0  0  0
 24 42  1  0  0  0
M  END
> <r_i_docking_score>
-6.72812984407367

$$$$
ligprep_5.maegz:296
                    3D
 Schrodinger Suite 2020-4.
 37 39  0  0  1  0            999 V2000
    8.7241    1.1483   20.7082 O   0  0  0  0  0  0
    8.3705    0.2346   21.4529 C   0  0  0  0  0  0
    6.9431   -0.3256   21.3519 C   0  0  0  0  0  0
    6.0124    0.5848   20.5512 C   0  0  0  0  0  0
    5.9768    0.5238   19.1530 C   0  0  0  0  0  0
    5.1700    1.4070   18.4360 C   0  0  0  0  0  0
    4.3811    2.3428   19.1080 C   0  0  0  0  0  0
    4.4089    2.4032   20.4993 C   0  0  0  0  0  0
    3.4096    3.5275   21.3453 Cl  0  0  0  0  0  0
    5.2446    1.5474   21.2121 C   0  0  0  0  0  0
    9.1942   -0.3474   22.3475 N   0  0  0  0  0  0
   10.5662   -0.0690   22.4680 C   0  0  0  0  0  0
   11.4401   -1.1488   22.3051 C   0  0  0  0  0  0
   12.7876   -1.0199   22.3078 N   0  0  0  0  0  0
   13.2948    0.2204   22.4970 C   0  0  0  0  0  0
   12.5047    1.3501   22.7079 C   0  0  0  0  0  0
   11.0978    1.2225   22.7082 C   0  0  0  0  0  0
   10.2368    2.4698   22.9343 C   0  0  0  0  0  0
   11.0195    3.5599   23.6744 C   0  0  0  0  0  0
   12.3667    3.8247   22.9804 C   0  0  0  0  0  0
   13.1487    2.5904   22.8894 N   0  0  0  0  0  0
    6.5405   -0.4827   22.3542 H   0  0  0  0  0  0
    6.9931   -1.2999   20.8642 H   0  0  0  0  0  0
    6.5895   -0.1882   18.6194 H   0  0  0  0  0  0
    5.1695    1.3760   17.3568 H   0  0  0  0  0  0
    3.7618    3.0279   18.5459 H   0  0  0  0  0  0
    5.2683    1.6122   22.2894 H   0  0  0  0  0  0
    8.8569   -1.1608   22.8378 H   0  0  0  0  0  0
   11.0684   -2.1464   22.1114 H   0  0  0  0  0  0
   14.3697    0.2971   22.4816 H   0  0  0  0  0  0
    9.9391    2.8785   21.9685 H   0  0  0  0  0  0
    9.3227    2.2263   23.4767 H   0  0  0  0  0  0
   11.1847    3.2549   24.7076 H   0  0  0  0  0  0
   10.4359    4.4799   23.7199 H   0  0  0  0  0  0
   12.9410    4.6127   23.4692 H   0  0  0  0  0  0
   12.1896    4.1291   21.9470 H   0  0  0  0  0  0
   14.1187    2.7088   22.6271 H   0  0  0  0  0  0
  1  2  2  0  0  0
  2  3  1  0  0  0
  2 11  1  0  0  0
  3  4  1  0  0  0
  3 22  1  0  0  0
  3 23  1  0  0  0
  4 10  2  0  0  0
  4  5  1  0  0  0
  5  6  2  0  0  0
  5 24  1  0  0  0
  6  7  1  0  0  0
  6 25  1  0  0  0
  7  8  2  0  0  0
  7 26  1  0  0  0
  8  9  1  0  0  0
  8 10  1  0  0  0
 10 27  1  0  0  0
 11 12  1  0  0  0
 11 28  1  0  0  0
 12 17  2  0  0  0
 12 13  1  0  0  0
 13 14  2  0  0  0
 13 29  1  0  0  0
 14 15  1  0  0  0
 15 16  2  0  0  0
 15 30  1  0  0  0
 16 21  1  0  0  0
 16 17  1  0  0  0
 17 18  1  0  0  0
 18 19  1  0  0  0
 18 31  1  0  0  0
 18 32  1  0  0  0
 19 20  1  0  0  0
 19 33  1  0  0  0
 19 34  1  0  0  0
 20 21  1  0  0  0
 20 35  1  0  0  0
 20 36  1  0  0  0
 21 37  1  0  0  0
M  END
> <r_i_docking_score>
-6.37649640471338

$$$$
ligprep_5.maegz:297
                    3D
 Schrodinger Suite 2020-4.
 33 35  0  0  1  0            999 V2000
    9.1022   -0.7695   21.9325 O   0  0  0  0  0  0
    8.6813    0.2611   22.4599 C   0  0  0  0  0  0
    7.1660    0.4526   22.6212 C   0  0  0  0  0  0
    6.4689    0.7540   21.2946 C   0  0  0  0  0  0
    5.7965    1.9638   21.0898 C   0  0  0  0  0  0
    5.1705    2.1830   19.8612 C   0  0  0  0  0  0
    5.2353    1.1995   18.8726 C   0  0  0  0  0  0
    5.9110    0.0112   19.1519 C   0  0  0  0  0  0
    5.9773   -1.2260   17.9571 Cl  0  0  0  0  0  0
    6.5127   -0.2201   20.3443 N   0  0  0  0  0  0
    9.4560    1.2849   22.8797 N   0  0  0  0  0  0
   10.8561    1.4400   22.7663 C   0  0  0  0  0  0
   11.7379    0.3601   22.5627 C   0  0  0  0  0  0
   13.0676    0.4931   22.3536 N   0  0  0  0  0  0
   13.5698    1.7458   22.3512 C   0  0  0  0  0  0
   12.8266    2.9136   22.6292 C   0  0  0  0  0  0
   13.4232    4.1982   22.6919 C   0  0  0  0  0  0
   12.6502    5.3127   22.9913 C   0  0  0  0  0  0
   11.2842    5.1837   23.2077 C   0  0  0  0  0  0
   10.6671    3.9359   23.1355 C   0  0  0  0  0  0
   11.4225    2.7596   22.8514 C   0  0  0  0  0  0
    6.9461    1.2317   23.3518 H   0  0  0  0  0  0
    6.7543   -0.4721   23.0277 H   0  0  0  0  0  0
    5.7634    2.7248   21.8547 H   0  0  0  0  0  0
    4.6593    3.1166   19.6707 H   0  0  0  0  0  0
    4.7713    1.3570   17.9095 H   0  0  0  0  0  0
    8.9704    2.0878   23.2489 H   0  0  0  0  0  0
   11.3926   -0.6614   22.5387 H   0  0  0  0  0  0
   14.6291    1.8297   22.1665 H   0  0  0  0  0  0
   14.4856    4.3006   22.5262 H   0  0  0  0  0  0
   13.1183    6.2833   23.0556 H   0  0  0  0  0  0
   10.6943    6.0612   23.4254 H   0  0  0  0  0  0
    9.6023    3.8701   23.2943 H   0  0  0  0  0  0
  1  2  2  0  0  0
  2  3  1  0  0  0
  2 11  1  0  0  0
  3  4  1  0  0  0
  3 22  1  0  0  0
  3 23  1  0  0  0
  4 10  2  0  0  0
  4  5  1  0  0  0
  5  6  2  0  0  0
  5 24  1  0  0  0
  6  7  1  0  0  0
  6 25  1  0  0  0
  7  8  2  0  0  0
  7 26  1  0  0  0
  8  9  1  0  0  0
  8 10  1  0  0  0
 11 12  1  0  0  0
 11 27  1  0  0  0
 12 21  2  0  0  0
 12 13  1  0  0  0
 13 14  2  0  0  0
 13 28  1  0  0  0
 14 15  1  0  0  0
 15 16  2  0  0  0
 15 29  1  0  0  0
 16 21  1  0  0  0
 16 17  1  0  0  0
 17 18  2  0  0  0
 17 30  1  0  0  0
 18 19  1  0  0  0
 18 31  1  0  0  0
 19 20  2  0  0  0
 19 32  1  0  0  0
 20 21  1  0  0  0
 20 33  1  0  0  0
M  END
> <r_i_docking_score>
-5.91189292606345

$$$$
ligprep_5.maegz:298
                    3D
 Schrodinger Suite 2020-4.
 50 53  0  0  1  0            999 V2000
    4.5983   -6.8971   29.7425 C   0  0  0  0  0  0
    4.7689   -6.8526   28.2947 N   0  0  0  0  0  0
    5.2829   -5.8036   27.6381 C   0  0  0  0  0  0
    5.8359   -4.8539   28.1999 O   0  0  0  0  0  0
    5.0970   -5.9151   26.3072 N   0  0  0  0  0  0
    5.4918   -4.9959   25.3200 C   0  0  0  0  0  0
    5.5146   -3.6082   25.5311 C   0  0  0  0  0  0
    5.9655   -2.7581   24.5250 C   0  0  0  0  0  0
    6.4158   -3.2970   23.3164 C   0  0  0  0  0  0
    6.9240   -2.4508   22.3172 N   0  0  0  0  0  0
    6.0823   -2.3518   21.1079 C   0  0  0  0  0  0
    6.0509   -1.0082   20.3920 C   0  0  0  0  0  0
    5.9699    0.2582   20.9942 C   0  0  0  0  0  0
    5.9131    1.3062   20.0842 C   0  0  0  0  0  0
    5.9691    0.7479   18.4475 S   0  0  0  0  0  0
    6.1034   -0.8762   19.0093 C   0  0  0  0  0  0
    8.2462   -2.1078   22.3075 C   0  0  0  0  0  0
    8.7957   -1.6530   21.3015 O   0  0  0  0  0  0
    9.1082   -2.2516   23.5849 C   0  0  0  0  0  0
   10.0175   -1.1338   23.7833 N   0  0  0  0  0  0
    9.6296   -0.0751   24.5229 N   0  0  0  0  0  0
   10.5976    0.8976   24.4342 N   0  0  0  0  0  0
   11.5686    0.4260   23.6050 C   0  0  0  0  0  0
   12.7472    1.0319   23.1614 C   0  0  0  0  0  0
   13.5700    0.2995   22.3089 C   0  0  0  0  0  0
   13.2387   -0.9961   21.9081 C   0  0  0  0  0  0
   12.0533   -1.6151   22.3083 C   0  0  0  0  0  0
   11.2344   -0.8811   23.1745 C   0  0  0  0  0  0
    6.3366   -4.6728   23.0792 C   0  0  0  0  0  0
    5.8581   -5.5169   24.0769 C   0  0  0  0  0  0
    3.7992   -7.5934   29.9977 H   0  0  0  0  0  0
    5.5206   -7.2400   30.2154 H   0  0  0  0  0  0
    4.3439   -5.9169   30.1521 H   0  0  0  0  0  0
    4.5551   -7.6988   27.7902 H   0  0  0  0  0  0
    4.7411   -6.7946   25.9670 H   0  0  0  0  0  0
    5.1941   -3.1810   26.4714 H   0  0  0  0  0  0
    5.9917   -1.6911   24.6969 H   0  0  0  0  0  0
    6.3715   -3.1409   20.4160 H   0  0  0  0  0  0
    5.0686   -2.6048   21.4054 H   0  0  0  0  0  0
    5.9281    0.3979   22.0646 H   0  0  0  0  0  0
    5.8250    2.3641   20.2924 H   0  0  0  0  0  0
    6.1947   -1.6685   18.2807 H   0  0  0  0  0  0
    9.7036   -3.1596   23.5028 H   0  0  0  0  0  0
    8.5165   -2.3540   24.4899 H   0  0  0  0  0  0
   13.0114    2.0331   23.4685 H   0  0  0  0  0  0
   14.4796    0.7496   21.9412 H   0  0  0  0  0  0
   13.9020   -1.5228   21.2376 H   0  0  0  0  0  0
   11.7842   -2.6039   21.9642 H   0  0  0  0  0  0
    6.6575   -5.0894   22.1349 H   0  0  0  0  0  0
    5.8035   -6.5783   23.8845 H   0  0  0  0  0  0
  1  2  1  0  0  0
  1 31  1  0  0  0
  1 32  1  0  0  0
  1 33  1  0  0  0
  2  3  1  0  0  0
  2 34  1  0  0  0
  3  4  2  0  0  0
  3  5  1  0  0  0
  5  6  1  0  0  0
  5 35  1  0  0  0
  6 30  2  0  0  0
  6  7  1  0  0  0
  7  8  2  0  0  0
  7 36  1  0  0  0
  8  9  1  0  0  0
  8 37  1  0  0  0
  9 10  1  0  0  0
  9 29  2  0  0  0
 10 11  1  0  0  0
 10 17  1  0  0  0
 11 12  1  0  0  0
 11 38  1  0  0  0
 11 39  1  0  0  0
 12 16  2  0  0  0
 12 13  1  0  0  0
 13 14  2  0  0  0
 13 40  1  0  0  0
 14 15  1  0  0  0
 14 41  1  0  0  0
 15 16  1  0  0  0
 16 42  1  0  0  0
 17 18  2  0  0  0
 17 19  1  0  0  0
 19 20  1  0  0  0
 19 43  1  0  0  0
 19 44  1  0  0  0
 20 28  1  0  0  0
 20 21  1  0  0  0
 21 22  2  0  0  0
 22 23  1  0  0  0
 23 28  2  0  0  0
 23 24  1  0  0  0
 24 25  2  0  0  0
 24 45  1  0  0  0
 25 26  1  0  0  0
 25 46  1  0  0  0
 26 27  2  0  0  0
 26 47  1  0  0  0
 27 28  1  0  0  0
 27 48  1  0  0  0
 29 30  1  0  0  0
 29 49  1  0  0  0
 30 50  1  0  0  0
M  END
> <r_i_docking_score>
-4.44247714716912

$$$$
ligprep_5.maegz:299
                    3D
 Schrodinger Suite 2020-4.
 52 55  0  0  1  0            999 V2000
    9.0415   -4.7515   27.0838 C   0  0  0  0  0  0
    7.8823   -4.4817   26.2377 N   0  0  0  0  0  0
    7.3014   -5.6529   25.5961 C   0  0  0  0  0  0
    7.8568   -3.2490   25.5437 C   0  0  0  0  0  0
    7.6387   -3.1920   24.1593 C   0  0  0  0  0  0
    7.5846   -1.9722   23.4964 C   0  0  0  0  0  0
    7.7428   -0.7772   24.2036 C   0  0  0  0  0  0
    7.6607    0.4514   23.5012 N   0  0  0  0  0  0
    6.4168    0.6868   22.7270 C   0  0  0  0  0  0
    6.5302    0.5553   21.2108 C   0  0  0  0  0  0
    7.5676   -0.0577   20.4829 C   0  0  0  0  0  0
    7.3686   -0.0531   19.1083 C   0  0  0  0  0  0
    5.9070    0.7470   18.6612 S   0  0  0  0  0  0
    5.5742    1.0595   20.3309 C   0  0  0  0  0  0
    8.5829    1.4593   23.6082 C   0  0  0  0  0  0
    8.4019    2.5543   23.0716 O   0  0  0  0  0  0
    9.8944    1.2778   24.4161 C   0  0  0  0  0  0
   11.1725    1.5571   23.6235 C   0  0  0  0  0  0
   11.9281    0.4808   23.1429 C   0  0  0  0  0  0
   13.1145    0.6101   22.5093 N   0  0  0  0  0  0
   13.5694    1.8646   22.3079 C   0  0  0  0  0  0
   12.9011    3.0415   22.7080 C   0  0  0  0  0  0
   13.4397    4.3315   22.4853 C   0  0  0  0  0  0
   12.7668    5.4550   22.9483 C   0  0  0  0  0  0
   11.5576    5.3281   23.6215 C   0  0  0  0  0  0
   11.0027    4.0713   23.8522 C   0  0  0  0  0  0
   11.6577    2.8904   23.3992 C   0  0  0  0  0  0
    7.9206   -0.8249   25.5950 C   0  0  0  0  0  0
    8.0048   -2.0510   26.2508 C   0  0  0  0  0  0
    9.9628   -4.6808   26.5047 H   0  0  0  0  0  0
    8.9985   -5.7538   27.5096 H   0  0  0  0  0  0
    9.1142   -4.0517   27.9077 H   0  0  0  0  0  0
    6.3389   -5.4184   25.1388 H   0  0  0  0  0  0
    7.9666   -6.0281   24.8169 H   0  0  0  0  0  0
    7.1294   -6.4508   26.3208 H   0  0  0  0  0  0
    7.5199   -4.0907   23.5739 H   0  0  0  0  0  0
    7.4178   -1.9700   22.4305 H   0  0  0  0  0  0
    5.6456    0.0047   23.0896 H   0  0  0  0  0  0
    6.0293    1.6766   22.9748 H   0  0  0  0  0  0
    8.4347   -0.5058   20.9457 H   0  0  0  0  0  0
    8.0021   -0.4768   18.3419 H   0  0  0  0  0  0
    4.6713    1.5899   20.5955 H   0  0  0  0  0  0
    9.8556    1.9258   25.2918 H   0  0  0  0  0  0
   10.0059    0.2753   24.8179 H   0  0  0  0  0  0
   11.5937   -0.5363   23.2916 H   0  0  0  0  0  0
   14.5276    1.9444   21.8168 H   0  0  0  0  0  0
   14.3859    4.4371   21.9756 H   0  0  0  0  0  0
   13.1968    6.4322   22.7921 H   0  0  0  0  0  0
   11.0450    6.2122   23.9714 H   0  0  0  0  0  0
   10.0645    4.0027   24.3811 H   0  0  0  0  0  0
    8.0071    0.0852   26.1715 H   0  0  0  0  0  0
    8.1504   -2.0629   27.3195 H   0  0  0  0  0  0
  1  2  1  0  0  0
  1 30  1  0  0  0
  1 31  1  0  0  0
  1 32  1  0  0  0
  2  3  1  0  0  0
  2  4  1  0  0  0
  3 33  1  0  0  0
  3 34  1  0  0  0
  3 35  1  0  0  0
  4 29  2  0  0  0
  4  5  1  0  0  0
  5  6  2  0  0  0
  5 36  1  0  0  0
  6  7  1  0  0  0
  6 37  1  0  0  0
  7  8  1  0  0  0
  7 28  2  0  0  0
  8  9  1  0  0  0
  8 15  1  0  0  0
  9 10  1  0  0  0
  9 38  1  0  0  0
  9 39  1  0  0  0
 10 14  2  0  0  0
 10 11  1  0  0  0
 11 12  2  0  0  0
 11 40  1  0  0  0
 12 13  1  0  0  0
 12 41  1  0  0  0
 13 14  1  0  0  0
 14 42  1  0  0  0
 15 16  2  0  0  0
 15 17  1  0  0  0
 17 18  1  0  0  0
 17 43  1  0  0  0
 17 44  1  0  0  0
 18 27  2  0  0  0
 18 19  1  0  0  0
 19 20  2  0  0  0
 19 45  1  0  0  0
 20 21  1  0  0  0
 21 22  2  0  0  0
 21 46  1  0  0  0
 22 27  1  0  0  0
 22 23  1  0  0  0
 23 24  2  0  0  0
 23 47  1  0  0  0
 24 25  1  0  0  0
 24 48  1  0  0  0
 25 26  2  0  0  0
 25 49  1  0  0  0
 26 27  1  0  0  0
 26 50  1  0  0  0
 28 29  1  0  0  0
 28 51  1  0  0  0
 29 52  1  0  0  0
M  END
> <r_i_docking_score>
-6.2783624231849

$$$$
ligprep_5.maegz:300
                    3D
 Schrodinger Suite 2020-4.
 41 44  0  0  1  0            999 V2000
    9.5525    1.9471   21.3026 O   0  0  0  0  0  0
    9.2149    1.9212   22.4875 C   0  0  0  0  0  0
    7.9318    1.9229   22.9115 N   0  0  0  0  0  0
    6.7777    2.0655   22.1215 C   0  0  0  0  0  0
    5.8132    2.9507   22.6148 C   0  0  0  0  0  0
    4.6848    3.2948   21.9558 N   0  0  0  0  0  0
    4.4902    2.7469   20.7379 C   0  0  0  0  0  0
    5.3531    1.8075   20.1344 C   0  0  0  0  0  0
    5.1014    1.2705   18.8536 C   0  0  0  0  0  0
    5.9679    0.3317   18.3080 C   0  0  0  0  0  0
    7.0615   -0.1207   19.0324 C   0  0  0  0  0  0
    7.3275    0.3822   20.3009 C   0  0  0  0  0  0
    6.5174    1.4090   20.8645 C   0  0  0  0  0  0
   10.2929    1.9370   23.5992 C   0  0  2  0  0  0
   10.7222    3.3882   23.9193 C   0  0  0  0  0  0
   11.6613    3.9777   22.8631 C   0  0  0  0  0  0
   12.9304    3.1432   22.6996 C   0  0  0  0  0  0
   12.6946    1.6339   22.7216 C   0  0  0  0  0  0
   13.7231    0.7846   22.3080 C   0  0  0  0  0  0
   13.5693   -0.5955   22.3064 C   0  0  0  0  0  0
   12.3648   -1.1479   22.7079 C   0  0  0  0  0  0
   12.1633   -2.8491   22.7085 Cl  0  0  0  0  0  0
   11.3368   -0.3286   23.1498 C   0  0  0  0  0  0
   11.4823    1.0633   23.1812 C   0  0  0  0  0  0
    7.7874    2.0306   23.9033 H   0  0  0  0  0  0
    5.9556    3.4562   23.5587 H   0  0  0  0  0  0
    3.6115    3.0806   20.2046 H   0  0  0  0  0  0
    4.2311    1.6009   18.3078 H   0  0  0  0  0  0
    5.7807   -0.0660   17.3217 H   0  0  0  0  0  0
    7.7153   -0.8630   18.5984 H   0  0  0  0  0  0
    8.1718   -0.0093   20.8452 H   0  0  0  0  0  0
    9.8048    1.5210   24.4828 H   0  0  0  0  0  0
   11.2630    3.3779   24.8599 H   0  0  0  0  0  0
    9.8585    4.0425   24.0540 H   0  0  0  0  0  0
   11.9137    5.0109   23.1031 H   0  0  0  0  0  0
   11.1672    4.0065   21.9079 H   0  0  0  0  0  0
   13.5954    3.4044   23.5081 H   0  0  0  0  0  0
   13.4470    3.4311   21.7833 H   0  0  0  0  0  0
   14.6544    1.2092   21.9631 H   0  0  0  0  0  0
   14.3694   -1.2393   21.9752 H   0  0  0  0  0  0
   10.4062   -0.7801   23.4635 H   0  0  0  0  0  0
  1  2  2  0  0  0
  2  3  1  0  0  0
  2 14  1  0  0  0
  3  4  1  0  0  0
  3 25  1  0  0  0
  4 13  2  0  0  0
  4  5  1  0  0  0
  5  6  2  0  0  0
  5 26  1  0  0  0
  6  7  1  0  0  0
  7  8  2  0  0  0
  7 27  1  0  0  0
  8 13  1  0  0  0
  8  9  1  0  0  0
  9 10  2  0  0  0
  9 28  1  0  0  0
 10 11  1  0  0  0
 10 29  1  0  0  0
 11 12  2  0  0  0
 11 30  1  0  0  0
 12 13  1  0  0  0
 12 31  1  0  0  0
 14 24  1  0  0  0
 14 15  1  0  0  0
 14 32  1  0  0  0
 15 16  1  0  0  0
 15 33  1  0  0  0
 15 34  1  0  0  0
 16 17  1  0  0  0
 16 35  1  0  0  0
 16 36  1  0  0  0
 17 18  1  0  0  0
 17 37  1  0  0  0
 17 38  1  0  0  0
 18 24  2  0  0  0
 18 19  1  0  0  0
 19 20  2  0  0  0
 19 39  1  0  0  0
 20 21  1  0  0  0
 20 40  1  0  0  0
 21 22  1  0  0  0
 21 23  2  0  0  0
 23 24  1  0  0  0
 23 41  1  0  0  0
M  END
> <r_i_docking_score>
-6.75240044910402

$$$$
ligprep_5.maegz:301
                    3D
 Schrodinger Suite 2020-4.
 40 43  0  0  1  0            999 V2000
    9.0442    1.9474   21.5431 O   0  0  0  0  0  0
    8.6206    1.6753   22.6733 C   0  0  0  0  0  0
    7.3126    1.5161   22.9686 N   0  0  0  0  0  0
    6.2724    1.7648   22.0680 C   0  0  0  0  0  0
    5.3114    2.7096   22.4416 C   0  0  0  0  0  0
    4.3243    3.1460   21.6270 N   0  0  0  0  0  0
    4.2842    2.6326   20.3775 C   0  0  0  0  0  0
    5.1696    1.6443   19.8890 C   0  0  0  0  0  0
    5.1029    1.1480   18.5739 C   0  0  0  0  0  0
    5.9696    0.1541   18.1451 C   0  0  0  0  0  0
    6.9112   -0.3774   19.0121 C   0  0  0  0  0  0
    7.0205    0.1018   20.3127 C   0  0  0  0  0  0
    6.1750    1.1541   20.7744 C   0  0  0  0  0  0
    9.5787    1.5905   23.8811 C   0  0  2  0  0  0
    9.4888    2.9103   24.6779 C   0  0  0  0  0  0
   10.1775    4.0842   23.9467 C   0  0  0  0  0  0
   11.5679    3.7529   23.6301 N   0  0  0  0  0  0
   11.9110    2.4349   23.2662 C   0  0  0  0  0  0
   13.1697    2.2316   22.7065 C   0  0  0  0  0  0
   13.5698    0.9588   22.3080 C   0  0  0  0  0  0
   12.7005   -0.1163   22.4504 C   0  0  0  0  0  0
   13.1716   -1.6813   21.9066 Cl  0  0  0  0  0  0
   11.4352    0.0819   22.9972 C   0  0  0  0  0  0
   11.0159    1.3526   23.4138 C   0  0  0  0  0  0
    7.0592    1.4654   23.9439 H   0  0  0  0  0  0
    5.3490    3.1881   23.4098 H   0  0  0  0  0  0
    3.5285    3.0405   19.7215 H   0  0  0  0  0  0
    4.3697    1.5606   17.9079 H   0  0  0  0  0  0
    5.9139   -0.2059   17.1260 H   0  0  0  0  0  0
    7.5763   -1.1487   18.6556 H   0  0  0  0  0  0
    7.7710   -0.3180   20.9651 H   0  0  0  0  0  0
    9.2119    0.7611   24.4875 H   0  0  0  0  0  0
    9.9694    2.7486   25.6383 H   0  0  0  0  0  0
    8.4560    3.1828   24.9058 H   0  0  0  0  0  0
   10.1225    5.0180   24.5077 H   0  0  0  0  0  0
    9.7009    4.2589   22.9809 H   0  0  0  0  0  0
   12.0991    4.5155   23.2343 H   0  0  0  0  0  0
   13.8542    3.0591   22.5806 H   0  0  0  0  0  0
   14.5486    0.8162   21.8762 H   0  0  0  0  0  0
   10.7590   -0.7583   23.0686 H   0  0  0  0  0  0
  1  2  2  0  0  0
  2  3  1  0  0  0
  2 14  1  0  0  0
  3  4  1  0  0  0
  3 25  1  0  0  0
  4 13  2  0  0  0
  4  5  1  0  0  0
  5  6  2  0  0  0
  5 26  1  0  0  0
  6  7  1  0  0  0
  7  8  2  0  0  0
  7 27  1  0  0  0
  8 13  1  0  0  0
  8  9  1  0  0  0
  9 10  2  0  0  0
  9 28  1  0  0  0
 10 11  1  0  0  0
 10 29  1  0  0  0
 11 12  2  0  0  0
 11 30  1  0  0  0
 12 13  1  0  0  0
 12 31  1  0  0  0
 14 24  1  0  0  0
 14 15  1  0  0  0
 14 32  1  0  0  0
 15 16  1  0  0  0
 15 33  1  0  0  0
 15 34  1  0  0  0
 16 17  1  0  0  0
 16 35  1  0  0  0
 16 36  1  0  0  0
 17 18  1  0  0  0
 17 37  1  0  0  0
 18 24  2  0  0  0
 18 19  1  0  0  0
 19 20  2  0  0  0
 19 38  1  0  0  0
 20 21  1  0  0  0
 20 39  1  0  0  0
 21 22  1  0  0  0
 21 23  2  0  0  0
 23 24  1  0  0  0
 23 40  1  0  0  0
M  END
> <r_i_docking_score>
-6.67792472843465

$$$$
ligprep_5.maegz:302
                    3D
 Schrodinger Suite 2020-4.
 52 56  0  0  1  0            999 V2000
    7.8391   -2.3567   21.9962 O   0  0  0  0  0  0
    8.1872   -1.3208   22.5712 C   0  0  0  0  0  0
    7.8290   -0.0930   22.1362 N   0  0  0  0  0  0
    7.0361    0.2033   21.0176 C   0  0  0  0  0  0
    7.2416   -0.4516   19.7984 C   0  0  0  0  0  0
    6.5232   -0.2070   18.6862 N   0  0  0  0  0  0
    5.5689    0.7429   18.7481 C   0  0  0  0  0  0
    5.2519    1.4774   19.9076 C   0  0  0  0  0  0
    4.2218    2.4444   19.9361 C   0  0  0  0  0  0
    3.9624    3.1473   21.1083 C   0  0  0  0  0  0
    4.7087    2.9117   22.2575 C   0  0  0  0  0  0
    5.7243    1.9587   22.2611 C   0  0  0  0  0  0
    6.0198    1.2117   21.0849 C   0  0  0  0  0  0
    9.0895   -1.3806   23.8514 C   0  0  2  0  0  0
    9.1979   -2.8618   24.3520 C   0  0  0  0  0  0
    7.9396   -3.5283   24.9607 C   0  0  0  0  0  0
    8.1769   -4.8842   25.6714 C   0  0  0  0  0  0
    9.5702   -5.4414   25.9161 C   0  0  0  0  0  0
    8.7646   -4.8897   27.0643 C   0  0  0  0  0  0
    8.5020   -0.4757   24.9889 C   0  0  0  0  0  0
    8.9502    0.9969   24.9331 C   0  0  0  0  0  0
   10.3698    1.0878   24.9173 O   0  0  0  0  0  0
   11.0085    0.3323   23.9562 C   0  0  0  0  0  0
   12.2683    0.8046   23.5889 C   0  0  0  0  0  0
   13.0571    0.0758   22.7058 C   0  0  0  0  0  0
   12.5815   -1.1251   22.1880 C   0  0  0  0  0  0
   13.5696   -2.0529   21.1216 Cl  0  0  0  0  0  0
   11.3087   -1.5786   22.5305 C   0  0  0  0  0  0
   10.4907   -0.8727   23.4316 C   0  0  0  0  0  0
    8.0980    0.6932   22.7029 H   0  0  0  0  0  0
    8.0082   -1.2055   19.6927 H   0  0  0  0  0  0
    5.0098    0.9151   17.8394 H   0  0  0  0  0  0
    3.6560    2.6527   19.0378 H   0  0  0  0  0  0
    3.1895    3.9028   21.1149 H   0  0  0  0  0  0
    4.4952    3.4734   23.1552 H   0  0  0  0  0  0
    6.2788    1.7796   23.1690 H   0  0  0  0  0  0
    9.5755   -3.5166   23.5653 H   0  0  0  0  0  0
    9.9698   -2.8621   25.1071 H   0  0  0  0  0  0
    7.4673   -2.8598   25.6800 H   0  0  0  0  0  0
    7.1903   -3.6699   24.1815 H   0  0  0  0  0  0
    7.4226   -5.6281   25.4088 H   0  0  0  0  0  0
    9.7206   -6.5158   25.8687 H   0  0  0  0  0  0
   10.4646   -4.9111   25.5961 H   0  0  0  0  0  0
    9.0662   -3.9419   27.5079 H   0  0  0  0  0  0
    8.3509   -5.5799   27.8008 H   0  0  0  0  0  0
    8.8317   -0.8594   25.9571 H   0  0  0  0  0  0
    7.4114   -0.5303   25.0186 H   0  0  0  0  0  0
    8.5792    1.5325   25.8078 H   0  0  0  0  0  0
    8.5446    1.5068   24.0599 H   0  0  0  0  0  0
   12.6442    1.7249   24.0095 H   0  0  0  0  0  0
   14.0377    0.4368   22.4306 H   0  0  0  0  0  0
   10.9588   -2.5040   22.0935 H   0  0  0  0  0  0
  1  2  2  0  0  0
  2  3  1  0  0  0
  2 14  1  0  0  0
  3  4  1  0  0  0
  3 30  1  0  0  0
  4 13  2  0  0  0
  4  5  1  0  0  0
  5  6  2  0  0  0
  5 31  1  0  0  0
  6  7  1  0  0  0
  7  8  2  0  0  0
  7 32  1  0  0  0
  8 13  1  0  0  0
  8  9  1  0  0  0
  9 10  2  0  0  0
  9 33  1  0  0  0
 10 11  1  0  0  0
 10 34  1  0  0  0
 11 12  2  0  0  0
 11 35  1  0  0  0
 12 13  1  0  0  0
 12 36  1  0  0  0
 14 29  1  0  0  0
 14 15  1  0  0  0
 14 20  1  0  0  0
 15 16  1  0  0  0
 15 37  1  0  0  0
 15 38  1  0  0  0
 16 17  1  0  0  0
 16 39  1  0  0  0
 16 40  1  0  0  0
 17 19  1  0  0  0
 17 18  1  0  0  0
 17 41  1  0  0  0
 18 19  1  0  0  0
 18 42  1  0  0  0
 18 43  1  0  0  0
 19 44  1  0  0  0
 19 45  1  0  0  0
 20 21  1  0  0  0
 20 46  1  0  0  0
 20 47  1  0  0  0
 21 22  1  0  0  0
 21 48  1  0  0  0
 21 49  1  0  0  0
 22 23  1  0  0  0
 23 29  2  0  0  0
 23 24  1  0  0  0
 24 25  2  0  0  0
 24 50  1  0  0  0
 25 26  1  0  0  0
 25 51  1  0  0  0
 26 27  1  0  0  0
 26 28  2  0  0  0
 28 29  1  0  0  0
 28 52  1  0  0  0
M  END
> <r_i_docking_score>
-6.30199832698665

$$$$
ligprep_5.maegz:303
                    3D
 Schrodinger Suite 2020-4.
 42 45  0  0  1  0            999 V2000
   11.1867    5.4181   23.8762 C   0  0  0  0  0  0
   10.9349    3.9955   23.3582 C   0  0  2  0  0  0
    9.9506    3.2024   24.2497 C   0  0  0  0  0  0
    9.7443    1.7543   23.7576 C   0  0  1  0  0  0
    8.7467    1.7722   22.5775 C   0  0  0  0  0  0
    9.1501    1.9473   21.4228 O   0  0  0  0  0  0
    7.4448    1.6608   22.9156 N   0  0  0  0  0  0
    6.3712    1.8510   22.0363 C   0  0  0  0  0  0
    5.3967    2.7773   22.4195 C   0  0  0  0  0  0
    4.3748    3.1715   21.6261 N   0  0  0  0  0  0
    4.3164    2.6439   20.3847 C   0  0  0  0  0  0
    5.2063    1.6662   19.8894 C   0  0  0  0  0  0
    5.1146    1.1469   18.5830 C   0  0  0  0  0  0
    5.9697    0.1372   18.1678 C   0  0  0  0  0  0
    6.9366   -0.3673   19.0239 C   0  0  0  0  0  0
    7.0817    0.1496   20.3051 C   0  0  0  0  0  0
    6.2419    1.2071   20.7592 C   0  0  0  0  0  0
   11.0701    1.1418   23.3160 C   0  0  0  0  0  0
   11.1999   -0.2336   23.0838 C   0  0  0  0  0  0
   12.3865   -0.7634   22.5845 C   0  0  0  0  0  0
   12.5307   -2.4531   22.3071 Cl  0  0  0  0  0  0
   13.4626    0.0721   22.3081 C   0  0  0  0  0  0
   13.3564    1.4415   22.5260 C   0  0  0  0  0  0
   12.1690    1.9733   23.0194 C   0  0  0  0  0  0
   12.1956    3.3329   23.2609 O   0  0  0  0  0  0
   10.2570    5.9790   23.9610 H   0  0  0  0  0  0
   11.6656    5.4059   24.8561 H   0  0  0  0  0  0
   11.8394    5.9645   23.1943 H   0  0  0  0  0  0
   10.5184    4.0822   22.3548 H   0  0  0  0  0  0
   10.3492    3.1475   25.2521 H   0  0  0  0  0  0
    9.0076    3.7467   24.3278 H   0  0  0  0  0  0
    9.2664    1.1645   24.5413 H   0  0  0  0  0  0
    7.2232    1.6825   23.8987 H   0  0  0  0  0  0
    5.4502    3.2773   23.3758 H   0  0  0  0  0  0
    3.5352    3.0284   19.7441 H   0  0  0  0  0  0
    4.3698    1.5300   17.9080 H   0  0  0  0  0  0
    5.8880   -0.2588   17.1652 H   0  0  0  0  0  0
    7.5914   -1.1520   18.6792 H   0  0  0  0  0  0
    7.8491   -0.2504   20.9498 H   0  0  0  0  0  0
   10.3651   -0.8931   23.2725 H   0  0  0  0  0  0
   14.3695   -0.3431   21.9111 H   0  0  0  0  0  0
   14.1934    2.0896   22.3108 H   0  0  0  0  0  0
  1  2  1  0  0  0
  1 26  1  0  0  0
  1 27  1  0  0  0
  1 28  1  0  0  0
  2  3  1  0  0  0
  2 25  1  0  0  0
  2 29  1  0  0  0
  3  4  1  0  0  0
  3 30  1  0  0  0
  3 31  1  0  0  0
  4  5  1  0  0  0
  4 18  1  0  0  0
  4 32  1  0  0  0
  5  6  2  0  0  0
  5  7  1  0  0  0
  7  8  1  0  0  0
  7 33  1  0  0  0
  8 17  2  0  0  0
  8  9  1  0  0  0
  9 10  2  0  0  0
  9 34  1  0  0  0
 10 11  1  0  0  0
 11 12  2  0  0  0
 11 35  1  0  0  0
 12 17  1  0  0  0
 12 13  1  0  0  0
 13 14  2  0  0  0
 13 36  1  0  0  0
 14 15  1  0  0  0
 14 37  1  0  0  0
 15 16  2  0  0  0
 15 38  1  0  0  0
 16 17  1  0  0  0
 16 39  1  0  0  0
 18 24  2  0  0  0
 18 19  1  0  0  0
 19 20  2  0  0  0
 19 40  1  0  0  0
 20 21  1  0  0  0
 20 22  1  0  0  0
 22 23  2  0  0  0
 22 41  1  0  0  0
 23 24  1  0  0  0
 23 42  1  0  0  0
 24 25  1  0  0  0
M  END
> <r_i_docking_score>
-6.61427751872966

$$$$
ligprep_5.maegz:304
                    3D
 Schrodinger Suite 2020-4.
 42 45  0  0  1  0            999 V2000
   11.1867    5.4181   23.8762 C   0  0  0  0  0  0
   10.9349    3.9955   23.3582 C   0  0  2  0  0  0
    9.9506    3.2024   24.2497 C   0  0  0  0  0  0
    9.7443    1.7543   23.7576 C   0  0  1  0  0  0
    8.7467    1.7722   22.5775 C   0  0  0  0  0  0
    9.1501    1.9473   21.4228 O   0  0  0  0  0  0
    7.4448    1.6608   22.9156 N   0  0  0  0  0  0
    6.3712    1.8510   22.0363 C   0  0  0  0  0  0
    5.3967    2.7773   22.4195 C   0  0  0  0  0  0
    4.3748    3.1715   21.6261 N   0  0  0  0  0  0
    4.3164    2.6439   20.3847 C   0  0  0  0  0  0
    5.2063    1.6662   19.8894 C   0  0  0  0  0  0
    5.1146    1.1469   18.5830 C   0  0  0  0  0  0
    5.9697    0.1372   18.1678 C   0  0  0  0  0  0
    6.9366   -0.3673   19.0239 C   0  0  0  0  0  0
    7.0817    0.1496   20.3051 C   0  0  0  0  0  0
    6.2419    1.2071   20.7592 C   0  0  0  0  0  0
   11.0701    1.1418   23.3160 C   0  0  0  0  0  0
   11.1999   -0.2336   23.0838 C   0  0  0  0  0  0
   12.3865   -0.7634   22.5845 C   0  0  0  0  0  0
   12.5307   -2.4531   22.3071 Cl  0  0  0  0  0  0
   13.4626    0.0721   22.3081 C   0  0  0  0  0  0
   13.3564    1.4415   22.5260 C   0  0  0  0  0  0
   12.1690    1.9733   23.0194 C   0  0  0  0  0  0
   12.1956    3.3329   23.2609 O   0  0  0  0  0  0
   10.2570    5.9790   23.9610 H   0  0  0  0  0  0
   11.6656    5.4059   24.8561 H   0  0  0  0  0  0
   11.8394    5.9645   23.1943 H   0  0  0  0  0  0
   10.5184    4.0822   22.3548 H   0  0  0  0  0  0
   10.3492    3.1475   25.2521 H   0  0  0  0  0  0
    9.0076    3.7467   24.3278 H   0  0  0  0  0  0
    9.2664    1.1645   24.5413 H   0  0  0  0  0  0
    7.2232    1.6825   23.8987 H   0  0  0  0  0  0
    5.4502    3.2773   23.3758 H   0  0  0  0  0  0
    3.5352    3.0284   19.7441 H   0  0  0  0  0  0
    4.3698    1.5300   17.9080 H   0  0  0  0  0  0
    5.8880   -0.2588   17.1652 H   0  0  0  0  0  0
    7.5914   -1.1520   18.6792 H   0  0  0  0  0  0
    7.8491   -0.2504   20.9498 H   0  0  0  0  0  0
   10.3651   -0.8931   23.2725 H   0  0  0  0  0  0
   14.3695   -0.3431   21.9111 H   0  0  0  0  0  0
   14.1934    2.0896   22.3108 H   0  0  0  0  0  0
  1  2  1  0  0  0
  1 26  1  0  0  0
  1 27  1  0  0  0
  1 28  1  0  0  0
  2  3  1  0  0  0
  2 25  1  0  0  0
  2 29  1  0  0  0
  3  4  1  0  0  0
  3 30  1  0  0  0
  3 31  1  0  0  0
  4  5  1  0  0  0
  4 18  1  0  0  0
  4 32  1  0  0  0
  5  6  2  0  0  0
  5  7  1  0  0  0
  7  8  1  0  0  0
  7 33  1  0  0  0
  8 17  2  0  0  0
  8  9  1  0  0  0
  9 10  2  0  0  0
  9 34  1  0  0  0
 10 11  1  0  0  0
 11 12  2  0  0  0
 11 35  1  0  0  0
 12 17  1  0  0  0
 12 13  1  0  0  0
 13 14  2  0  0  0
 13 36  1  0  0  0
 14 15  1  0  0  0
 14 37  1  0  0  0
 15 16  2  0  0  0
 15 38  1  0  0  0
 16 17  1  0  0  0
 16 39  1  0  0  0
 18 24  2  0  0  0
 18 19  1  0  0  0
 19 20  2  0  0  0
 19 40  1  0  0  0
 20 21  1  0  0  0
 20 22  1  0  0  0
 22 23  2  0  0  0
 22 41  1  0  0  0
 23 24  1  0  0  0
 23 42  1  0  0  0
 24 25  1  0  0  0
M  END
> <r_i_docking_score>
-6.61427751872966

$$$$
ligprep_5.maegz:305
                    3D
 Schrodinger Suite 2020-4.
 42 45  0  0  1  0            999 V2000
   10.2013   -1.2364   23.1455 C   0  0  0  0  0  0
   11.2293   -0.1131   23.0096 C   0  0  0  0  0  0
   12.4858   -0.4171   22.4575 C   0  0  0  0  0  0
   12.8946   -2.0079   21.9079 Cl  0  0  0  0  0  0
   13.4413    0.5797   22.3081 C   0  0  0  0  0  0
   13.1698    1.8812   22.6998 C   0  0  0  0  0  0
   11.9246    2.2011   23.2212 C   0  0  0  0  0  0
   10.9289    1.2152   23.4035 C   0  0  0  0  0  0
    9.5359    1.6694   23.8797 C   0  0  2  0  0  0
    8.5612    1.7172   22.6841 C   0  0  0  0  0  0
    8.9786    1.9478   21.5433 O   0  0  0  0  0  0
    7.2553    1.5791   22.9974 N   0  0  0  0  0  0
    6.2100    1.7959   22.0948 C   0  0  0  0  0  0
    5.2370    2.7354   22.4501 C   0  0  0  0  0  0
    4.2527    3.1514   21.6206 N   0  0  0  0  0  0
    4.2369    2.6343   20.3725 C   0  0  0  0  0  0
    5.1356    1.6497   19.9044 C   0  0  0  0  0  0
    5.0961    1.1470   18.5912 C   0  0  0  0  0  0
    5.9698    0.1432   18.1932 C   0  0  0  0  0  0
    6.8903   -0.3861   19.0846 C   0  0  0  0  0  0
    6.9744    0.1058   20.3797 C   0  0  0  0  0  0
    6.1257    1.1674   20.8099 C   0  0  0  0  0  0
    9.5794    3.0842   24.5030 C   0  0  0  0  0  0
   10.4645    4.0344   23.6780 C   0  0  0  0  0  0
   11.7927    3.5254   23.5958 O   0  0  0  0  0  0
   10.6705   -2.1282   23.5653 H   0  0  0  0  0  0
    9.3692   -1.0026   23.8060 H   0  0  0  0  0  0
    9.8083   -1.5040   22.1628 H   0  0  0  0  0  0
   14.3881    0.3468   21.8579 H   0  0  0  0  0  0
   13.9207    2.6487   22.5811 H   0  0  0  0  0  0
    9.0953    0.9875   24.6074 H   0  0  0  0  0  0
    7.0090    1.5687   23.9747 H   0  0  0  0  0  0
    5.2639    3.2264   23.4118 H   0  0  0  0  0  0
    3.4858    3.0322   19.7046 H   0  0  0  0  0  0
    4.3695    1.5452   17.9081 H   0  0  0  0  0  0
    5.9290   -0.2369   17.1830 H   0  0  0  0  0  0
    7.5566   -1.1702   18.7587 H   0  0  0  0  0  0
    7.7070   -0.3115   21.0529 H   0  0  0  0  0  0
    8.5842    3.5221   24.6049 H   0  0  0  0  0  0
    9.9698    3.0061   25.5084 H   0  0  0  0  0  0
   10.0544    4.1650   22.6767 H   0  0  0  0  0  0
   10.4956    5.0213   24.1410 H   0  0  0  0  0  0
  1  2  1  0  0  0
  1 26  1  0  0  0
  1 27  1  0  0  0
  1 28  1  0  0  0
  2  8  2  0  0  0
  2  3  1  0  0  0
  3  4  1  0  0  0
  3  5  2  0  0  0
  5  6  1  0  0  0
  5 29  1  0  0  0
  6  7  2  0  0  0
  6 30  1  0  0  0
  7 25  1  0  0  0
  7  8  1  0  0  0
  8  9  1  0  0  0
  9 10  1  0  0  0
  9 23  1  0  0  0
  9 31  1  0  0  0
 10 11  2  0  0  0
 10 12  1  0  0  0
 12 13  1  0  0  0
 12 32  1  0  0  0
 13 22  2  0  0  0
 13 14  1  0  0  0
 14 15  2  0  0  0
 14 33  1  0  0  0
 15 16  1  0  0  0
 16 17  2  0  0  0
 16 34  1  0  0  0
 17 22  1  0  0  0
 17 18  1  0  0  0
 18 19  2  0  0  0
 18 35  1  0  0  0
 19 20  1  0  0  0
 19 36  1  0  0  0
 20 21  2  0  0  0
 20 37  1  0  0  0
 21 22  1  0  0  0
 21 38  1  0  0  0
 23 24  1  0  0  0
 23 39  1  0  0  0
 23 40  1  0  0  0
 24 25  1  0  0  0
 24 41  1  0  0  0
 24 42  1  0  0  0
M  END
> <r_i_docking_score>
-6.713797412607

$$$$
ligprep_5.maegz:306
                    3D
 Schrodinger Suite 2020-4.
 42 45  0  0  1  0            999 V2000
    7.5662   -4.5595   23.8411 C   0  0  0  0  0  0
    7.3691   -3.5723   22.6699 C   0  0  1  0  0  0
    6.0808   -3.8777   21.8761 C   0  0  0  0  0  0
    5.9699   -3.0380   20.7242 O   0  0  0  0  0  0
    6.0939   -1.6827   20.9578 C   0  0  0  0  0  0
    5.5961   -0.8512   19.9539 C   0  0  0  0  0  0
    5.6297    0.5329   20.1039 C   0  0  0  0  0  0
    6.1464    1.0820   21.2740 C   0  0  0  0  0  0
    6.1539    2.7901   21.5078 Cl  0  0  0  0  0  0
    6.6636    0.2476   22.2631 C   0  0  0  0  0  0
    6.7228   -1.1459   22.0971 C   0  0  0  0  0  0
    7.3642   -2.0843   23.1375 C   0  0  2  0  0  0
    8.7997   -1.5864   23.4591 C   0  0  0  0  0  0
    9.0863   -1.2817   24.6177 O   0  0  0  0  0  0
    9.6615   -1.4769   22.4258 N   0  0  0  0  0  0
   10.9383   -0.8990   22.4817 C   0  0  0  0  0  0
   12.0335   -1.7020   22.1515 C   0  0  0  0  0  0
   13.3076   -1.2505   22.0771 N   0  0  0  0  0  0
   13.5182    0.0590   22.3363 C   0  0  0  0  0  0
   12.5065    0.9867   22.6689 C   0  0  0  0  0  0
   12.7706    2.3656   22.8477 C   0  0  0  0  0  0
   11.7315    3.2509   23.1095 C   0  0  0  0  0  0
   10.4256    2.7898   23.2036 C   0  0  0  0  0  0
   10.1389    1.4399   23.0254 C   0  0  0  0  0  0
   11.1663    0.4974   22.7446 C   0  0  0  0  0  0
    6.7548   -4.4882   24.5662 H   0  0  0  0  0  0
    7.6027   -5.5910   23.4871 H   0  0  0  0  0  0
    8.5010   -4.3689   24.3737 H   0  0  0  0  0  0
    8.1931   -3.7402   21.9716 H   0  0  0  0  0  0
    5.2075   -3.7494   22.5189 H   0  0  0  0  0  0
    6.0793   -4.9162   21.5420 H   0  0  0  0  0  0
    5.1700   -1.2854   19.0649 H   0  0  0  0  0  0
    5.2345    1.1752   19.3294 H   0  0  0  0  0  0
    7.0324    0.6944   23.1724 H   0  0  0  0  0  0
    6.8027   -1.9847   24.0683 H   0  0  0  0  0  0
    9.4116   -1.9324   21.5613 H   0  0  0  0  0  0
   11.8950   -2.7469   21.9116 H   0  0  0  0  0  0
   14.5356    0.4055   22.2471 H   0  0  0  0  0  0
   13.7842    2.7281   22.7532 H   0  0  0  0  0  0
   11.9396    4.3042   23.2308 H   0  0  0  0  0  0
    9.6224    3.4836   23.4002 H   0  0  0  0  0  0
    9.1174    1.1152   23.0889 H   0  0  0  0  0  0
  1  2  1  0  0  0
  1 26  1  0  0  0
  1 27  1  0  0  0
  1 28  1  0  0  0
  2  3  1  0  0  0
  2 12  1  0  0  0
  2 29  1  0  0  0
  3  4  1  0  0  0
  3 30  1  0  0  0
  3 31  1  0  0  0
  4  5  1  0  0  0
  5 11  2  0  0  0
  5  6  1  0  0  0
  6  7  2  0  0  0
  6 32  1  0  0  0
  7  8  1  0  0  0
  7 33  1  0  0  0
  8  9  1  0  0  0
  8 10  2  0  0  0
 10 11  1  0  0  0
 10 34  1  0  0  0
 11 12  1  0  0  0
 12 13  1  0  0  0
 12 35  1  0  0  0
 13 14  2  0  0  0
 13 15  1  0  0  0
 15 16  1  0  0  0
 15 36  1  0  0  0
 16 25  2  0  0  0
 16 17  1  0  0  0
 17 18  2  0  0  0
 17 37  1  0  0  0
 18 19  1  0  0  0
 19 20  2  0  0  0
 19 38  1  0  0  0
 20 25  1  0  0  0
 20 21  1  0  0  0
 21 22  2  0  0  0
 21 39  1  0  0  0
 22 23  1  0  0  0
 22 40  1  0  0  0
 23 24  2  0  0  0
 23 41  1  0  0  0
 24 25  1  0  0  0
 24 42  1  0  0  0
M  END
> <r_i_docking_score>
-6.34114467990918

$$$$
ligprep_5.maegz:307
                    3D
 Schrodinger Suite 2020-4.
 42 45  0  0  1  0            999 V2000
    9.1448    0.6265   24.9573 C   0  0  0  0  0  0
    9.5746    1.6907   23.9036 C   0  0  1  0  0  0
    8.5878    1.6996   22.6955 C   0  0  0  0  0  0
    9.0010    1.9440   21.5543 O   0  0  0  0  0  0
    7.2775    1.5366   22.9824 N   0  0  0  0  0  0
    6.2399    1.7710   22.0749 C   0  0  0  0  0  0
    5.2758    2.7152   22.4405 C   0  0  0  0  0  0
    4.2921    3.1459   21.6186 N   0  0  0  0  0  0
    4.2630    2.6322   20.3693 C   0  0  0  0  0  0
    5.1541    1.6453   19.8892 C   0  0  0  0  0  0
    5.0976    1.1493   18.5756 C   0  0  0  0  0  0
    5.9698    0.1574   18.1510 C   0  0  0  0  0  0
    6.9085   -0.3698   19.0255 C   0  0  0  0  0  0
    7.0048    0.1080   20.3276 C   0  0  0  0  0  0
    6.1532    1.1571   20.7811 C   0  0  0  0  0  0
    9.5170    3.1135   24.5253 C   0  0  0  0  0  0
   10.2934    4.1570   23.7028 C   0  0  0  0  0  0
   11.6628    3.7778   23.6142 O   0  0  0  0  0  0
   11.9025    2.4796   23.2066 C   0  0  0  0  0  0
   13.1701    2.2662   22.6835 C   0  0  0  0  0  0
   13.5696    0.9880   22.3079 C   0  0  0  0  0  0
   12.6882   -0.0796   22.4320 C   0  0  0  0  0  0
   13.1685   -1.6531   21.9078 Cl  0  0  0  0  0  0
   11.4129    0.1340   22.9559 C   0  0  0  0  0  0
   10.9940    1.4128   23.3690 C   0  0  0  0  0  0
    9.0167   -0.3660   24.5237 H   0  0  0  0  0  0
    9.8935    0.5353   25.7457 H   0  0  0  0  0  0
    8.2077    0.8873   25.4508 H   0  0  0  0  0  0
    7.0237    1.5129   23.9575 H   0  0  0  0  0  0
    5.3064    3.1950   23.4079 H   0  0  0  0  0  0
    3.5087    3.0366   19.7106 H   0  0  0  0  0  0
    4.3692    1.5650   17.9081 H   0  0  0  0  0  0
    5.9242   -0.2018   17.1296 H   0  0  0  0  0  0
    7.5784   -1.1431   18.6810 H   0  0  0  0  0  0
    7.7486   -0.3080   20.9888 H   0  0  0  0  0  0
    9.9689    3.0728   25.5080 H   0  0  0  0  0  0
    8.4915    3.4516   24.6914 H   0  0  0  0  0  0
   10.2345    5.1367   24.1776 H   0  0  0  0  0  0
    9.8637    4.2586   22.7069 H   0  0  0  0  0  0
   13.8592    3.0928   22.5885 H   0  0  0  0  0  0
   14.5588    0.8364   21.9067 H   0  0  0  0  0  0
   10.7366   -0.7045   23.0261 H   0  0  0  0  0  0
  1  2  1  0  0  0
  1 26  1  0  0  0
  1 27  1  0  0  0
  1 28  1  0  0  0
  2 25  1  0  0  0
  2  3  1  0  0  0
  2 16  1  0  0  0
  3  4  2  0  0  0
  3  5  1  0  0  0
  5  6  1  0  0  0
  5 29  1  0  0  0
  6 15  2  0  0  0
  6  7  1  0  0  0
  7  8  2  0  0  0
  7 30  1  0  0  0
  8  9  1  0  0  0
  9 10  2  0  0  0
  9 31  1  0  0  0
 10 15  1  0  0  0
 10 11  1  0  0  0
 11 12  2  0  0  0
 11 32  1  0  0  0
 12 13  1  0  0  0
 12 33  1  0  0  0
 13 14  2  0  0  0
 13 34  1  0  0  0
 14 15  1  0  0  0
 14 35  1  0  0  0
 16 17  1  0  0  0
 16 36  1  0  0  0
 16 37  1  0  0  0
 17 18  1  0  0  0
 17 38  1  0  0  0
 17 39  1  0  0  0
 18 19  1  0  0  0
 19 25  2  0  0  0
 19 20  1  0  0  0
 20 21  2  0  0  0
 20 40  1  0  0  0
 21 22  1  0  0  0
 21 41  1  0  0  0
 22 23  1  0  0  0
 22 24  2  0  0  0
 24 25  1  0  0  0
 24 42  1  0  0  0
M  END
> <r_i_docking_score>
-6.72812984407367

$$$$
ligprep_5.maegz:308
                    3D
 Schrodinger Suite 2020-4.
 39 42  0  0  1  0            999 V2000
    9.5922   -1.3101   24.3771 O   0  0  0  0  0  0
    9.6830   -1.6722   23.2012 C   0  0  0  0  0  0
    8.8480   -2.5623   22.6264 N   0  0  0  0  0  0
    7.7691   -3.2013   23.2568 C   0  0  0  0  0  0
    6.5206   -3.1030   22.6348 C   0  0  0  0  0  0
    5.3810   -3.6366   23.1332 N   0  0  0  0  0  0
    5.4714   -4.3130   24.3005 C   0  0  0  0  0  0
    6.6717   -4.5215   25.0189 C   0  0  0  0  0  0
    6.7165   -5.2548   26.2308 C   0  0  0  0  0  0
    7.9307   -5.4677   26.8724 C   0  0  0  0  0  0
    9.1124   -4.9775   26.3301 C   0  0  0  0  0  0
    9.0977   -4.2390   25.1513 C   0  0  0  0  0  0
    7.8730   -3.9713   24.4706 C   0  0  0  0  0  0
   10.8163   -1.1287   22.3029 C   0  0  2  0  0  0
   12.0423   -2.0522   22.4652 C   0  0  0  0  0  0
   13.3107   -1.3986   21.9071 C   0  0  0  0  0  0
   13.5790   -0.1563   22.5525 O   0  0  0  0  0  0
   12.5225    0.7302   22.6209 C   0  0  0  0  0  0
   12.8799    2.0738   22.7301 C   0  0  0  0  0  0
   11.8962    3.0490   22.8702 C   0  0  0  0  0  0
   10.5528    2.6791   22.8892 C   0  0  0  0  0  0
    9.2025    4.0022   23.1080 Br  0  0  0  0  0  0
   10.1986    1.3406   22.7354 C   0  0  0  0  0  0
   11.1707    0.3324   22.6197 C   0  0  0  0  0  0
    8.9194   -2.6796   21.6284 H   0  0  0  0  0  0
    6.4048   -2.5485   21.7123 H   0  0  0  0  0  0
    4.5470   -4.7206   24.6846 H   0  0  0  0  0  0
    5.8064   -5.6662   26.6430 H   0  0  0  0  0  0
    7.9640   -6.0479   27.7834 H   0  0  0  0  0  0
   10.0488   -5.1785   26.8317 H   0  0  0  0  0  0
   10.0311   -3.8749   24.7506 H   0  0  0  0  0  0
   10.4613   -1.1956   21.2747 H   0  0  0  0  0  0
   11.8660   -2.9913   21.9449 H   0  0  0  0  0  0
   12.2244   -2.3031   23.5081 H   0  0  0  0  0  0
   13.2109   -1.2531   20.8322 H   0  0  0  0  0  0
   14.1652   -2.0557   22.0573 H   0  0  0  0  0  0
   13.9221    2.3553   22.7089 H   0  0  0  0  0  0
   12.1736    4.0878   22.9644 H   0  0  0  0  0  0
    9.1515    1.0817   22.7166 H   0  0  0  0  0  0
  1  2  2  0  0  0
  2  3  1  0  0  0
  2 14  1  0  0  0
  3  4  1  0  0  0
  3 25  1  0  0  0
  4 13  2  0  0  0
  4  5  1  0  0  0
  5  6  2  0  0  0
  5 26  1  0  0  0
  6  7  1  0  0  0
  7  8  2  0  0  0
  7 27  1  0  0  0
  8 13  1  0  0  0
  8  9  1  0  0  0
  9 10  2  0  0  0
  9 28  1  0  0  0
 10 11  1  0  0  0
 10 29  1  0  0  0
 11 12  2  0  0  0
 11 30  1  0  0  0
 12 13  1  0  0  0
 12 31  1  0  0  0
 14 24  1  0  0  0
 14 15  1  0  0  0
 14 32  1  0  0  0
 15 16  1  0  0  0
 15 33  1  0  0  0
 15 34  1  0  0  0
 16 17  1  0  0  0
 16 35  1  0  0  0
 16 36  1  0  0  0
 17 18  1  0  0  0
 18 24  2  0  0  0
 18 19  1  0  0  0
 19 20  2  0  0  0
 19 37  1  0  0  0
 20 21  1  0  0  0
 20 38  1  0  0  0
 21 22  1  0  0  0
 21 23  2  0  0  0
 23 24  1  0  0  0
 23 39  1  0  0  0
M  END
> <r_i_docking_score>
-6.466667308732

$$$$
ligprep_5.maegz:309
                    3D
 Schrodinger Suite 2020-4.
 39 42  0  0  1  0            999 V2000
    8.5458   -0.8075   22.1255 O   0  0  0  0  0  0
    8.4911    0.3464   22.5550 C   0  0  0  0  0  0
    9.4000    0.7624   23.7205 C   0  0  0  0  0  0
   10.8255    1.0390   23.2410 C   0  0  0  0  0  0
   11.2999    2.3563   23.1624 C   0  0  0  0  0  0
   12.5951    2.6280   22.7067 C   0  0  0  0  0  0
   13.1564    4.2589   22.6224 Cl  0  0  0  0  0  0
   13.4321    1.5807   22.3082 C   0  0  0  0  0  0
   12.9634    0.2672   22.3659 C   0  0  0  0  0  0
   11.6902    0.0165   22.8415 C   0  0  0  0  0  0
   11.3927   -1.3201   22.8974 O   0  0  0  0  0  0
   12.4596   -2.0363   22.2789 C   0  0  0  0  0  0
   13.6000   -1.0391   22.0349 C   0  0  0  0  0  0
    7.6726    1.2995   22.0643 N   0  0  0  0  0  0
    6.8176    1.2037   20.9465 C   0  0  0  0  0  0
    7.1579    0.4396   19.8180 C   0  0  0  0  0  0
    6.4170    0.3778   18.6903 N   0  0  0  0  0  0
    5.2798    1.1024   18.6551 C   0  0  0  0  0  0
    4.7968    1.8947   19.7189 C   0  0  0  0  0  0
    3.5847    2.6222   19.6393 C   0  0  0  0  0  0
    3.1621    3.3884   20.7227 C   0  0  0  0  0  0
    3.9205    3.4498   21.8846 C   0  0  0  0  0  0
    5.1213    2.7506   21.9886 C   0  0  0  0  0  0
    5.5920    1.9513   20.9068 C   0  0  0  0  0  0
    9.4214   -0.0437   24.4541 H   0  0  0  0  0  0
    8.9956    1.6333   24.2334 H   0  0  0  0  0  0
   10.6640    3.1818   23.4477 H   0  0  0  0  0  0
   14.4286    1.7995   21.9520 H   0  0  0  0  0  0
   12.1039   -2.4261   21.3221 H   0  0  0  0  0  0
   12.7723   -2.8815   22.8919 H   0  0  0  0  0  0
   14.4234   -1.2528   22.7078 H   0  0  0  0  0  0
   13.9680   -1.1065   21.0112 H   0  0  0  0  0  0
    7.6375    2.1760   22.5605 H   0  0  0  0  0  0
    8.0687   -0.1409   19.7823 H   0  0  0  0  0  0
    4.7264    1.0474   17.7321 H   0  0  0  0  0  0
    3.0087    2.6025   18.7249 H   0  0  0  0  0  0
    2.2463    3.9562   20.6488 H   0  0  0  0  0  0
    3.5783    4.0547   22.7103 H   0  0  0  0  0  0
    5.6901    2.8116   22.9028 H   0  0  0  0  0  0
  1  2  2  0  0  0
  2  3  1  0  0  0
  2 14  1  0  0  0
  3  4  1  0  0  0
  3 25  1  0  0  0
  3 26  1  0  0  0
  4 10  2  0  0  0
  4  5  1  0  0  0
  5  6  2  0  0  0
  5 27  1  0  0  0
  6  7  1  0  0  0
  6  8  1  0  0  0
  8  9  2  0  0  0
  8 28  1  0  0  0
  9 13  1  0  0  0
  9 10  1  0  0  0
 10 11  1  0  0  0
 11 12  1  0  0  0
 12 13  1  0  0  0
 12 29  1  0  0  0
 12 30  1  0  0  0
 13 31  1  0  0  0
 13 32  1  0  0  0
 14 15  1  0  0  0
 14 33  1  0  0  0
 15 24  2  0  0  0
 15 16  1  0  0  0
 16 17  2  0  0  0
 16 34  1  0  0  0
 17 18  1  0  0  0
 18 19  2  0  0  0
 18 35  1  0  0  0
 19 24  1  0  0  0
 19 20  1  0  0  0
 20 21  2  0  0  0
 20 36  1  0  0  0
 21 22  1  0  0  0
 21 37  1  0  0  0
 22 23  2  0  0  0
 22 38  1  0  0  0
 23 24  1  0  0  0
 23 39  1  0  0  0
M  END
> <r_i_docking_score>
-6.2865124084243

$$$$
ligprep_5.maegz:310
                    3D
 Schrodinger Suite 2020-4.
 39 42  0  0  1  0            999 V2000
    9.4402    1.9472   21.3408 O   0  0  0  0  0  0
    9.0978    1.8723   22.5227 C   0  0  0  0  0  0
    7.8143    1.8432   22.9426 N   0  0  0  0  0  0
    6.6667    2.0162   22.1503 C   0  0  0  0  0  0
    5.7057    2.9004   22.6533 C   0  0  0  0  0  0
    4.5883    3.2697   21.9888 N   0  0  0  0  0  0
    4.3987    2.7470   20.7590 C   0  0  0  0  0  0
    5.2572    1.8096   20.1479 C   0  0  0  0  0  0
    5.0078    1.2916   18.8596 C   0  0  0  0  0  0
    5.8676    0.3500   18.3077 C   0  0  0  0  0  0
    6.9591   -0.1155   19.0259 C   0  0  0  0  0  0
    7.2268    0.3725   20.2991 C   0  0  0  0  0  0
    6.4135    1.3893   20.8787 C   0  0  0  0  0  0
   10.1703    1.8751   23.6393 C   0  0  2  0  0  0
   10.6250    3.3246   23.9277 C   0  0  0  0  0  0
   11.6422    3.8282   22.8910 C   0  0  0  0  0  0
   12.7975    2.9919   22.8679 O   0  0  0  0  0  0
   12.5599    1.6334   22.7852 C   0  0  0  0  0  0
   13.6307    0.8704   22.3284 C   0  0  0  0  0  0
   13.5323   -0.5173   22.3046 C   0  0  0  0  0  0
   12.3549   -1.1363   22.7079 C   0  0  0  0  0  0
   12.2490   -2.8488   22.7081 Cl  0  0  0  0  0  0
   11.2776   -0.3758   23.1503 C   0  0  0  0  0  0
   11.3637    1.0199   23.2128 C   0  0  0  0  0  0
    7.6680    1.9221   23.9353 H   0  0  0  0  0  0
    5.8430    3.3843   23.6088 H   0  0  0  0  0  0
    3.5270    3.0963   20.2246 H   0  0  0  0  0  0
    4.1449    1.6352   18.3078 H   0  0  0  0  0  0
    5.6783   -0.0361   17.3163 H   0  0  0  0  0  0
    7.6126   -0.8538   18.5851 H   0  0  0  0  0  0
    8.0711   -0.0240   20.8385 H   0  0  0  0  0  0
    9.6815    1.4663   24.5263 H   0  0  0  0  0  0
   11.1122    3.3393   24.8970 H   0  0  0  0  0  0
    9.7798    4.0130   23.9831 H   0  0  0  0  0  0
   11.9507    4.8483   23.1202 H   0  0  0  0  0  0
   11.1860    3.8395   21.9079 H   0  0  0  0  0  0
   14.5420    1.3582   22.0154 H   0  0  0  0  0  0
   14.3671   -1.1159   21.9718 H   0  0  0  0  0  0
   10.3678   -0.8731   23.4540 H   0  0  0  0  0  0
  1  2  2  0  0  0
  2  3  1  0  0  0
  2 14  1  0  0  0
  3  4  1  0  0  0
  3 25  1  0  0  0
  4 13  2  0  0  0
  4  5  1  0  0  0
  5  6  2  0  0  0
  5 26  1  0  0  0
  6  7  1  0  0  0
  7  8  2  0  0  0
  7 27  1  0  0  0
  8 13  1  0  0  0
  8  9  1  0  0  0
  9 10  2  0  0  0
  9 28  1  0  0  0
 10 11  1  0  0  0
 10 29  1  0  0  0
 11 12  2  0  0  0
 11 30  1  0  0  0
 12 13  1  0  0  0
 12 31  1  0  0  0
 14 15  1  0  0  0
 14 24  1  0  0  0
 14 32  1  0  0  0
 15 16  1  0  0  0
 15 33  1  0  0  0
 15 34  1  0  0  0
 16 17  1  0  0  0
 16 35  1  0  0  0
 16 36  1  0  0  0
 17 18  1  0  0  0
 18 24  2  0  0  0
 18 19  1  0  0  0
 19 20  2  0  0  0
 19 37  1  0  0  0
 20 21  1  0  0  0
 20 38  1  0  0  0
 21 22  1  0  0  0
 21 23  2  0  0  0
 23 24  1  0  0  0
 23 39  1  0  0  0
M  END
> <r_i_docking_score>
-6.43341621671697

$$$$
ligprep_5.maegz:311
                    3D
 Schrodinger Suite 2020-4.
 67 70  0  0  1  0            999 V2000
    7.0656    5.9990   24.2765 C   0  0  0  0  0  0
    6.6585    5.3128   22.9533 C   0  0  0  0  0  0
    5.1189    5.4235   22.7933 C   0  0  0  0  0  0
    7.2861    6.0954   21.7638 C   0  0  0  0  0  0
    7.1526    3.8424   22.9676 C   0  0  0  0  0  0
    6.2916    2.7630   23.2294 C   0  0  0  0  0  0
    6.7584    1.4497   23.1843 C   0  0  0  0  0  0
    8.0943    1.1960   22.8572 C   0  0  0  0  0  0
    8.5662   -0.1326   22.7435 N   0  0  0  0  0  0
    8.1983   -0.9421   21.6860 C   0  0  0  0  0  0
    8.5772   -2.1105   21.5865 O   0  0  0  0  0  0
    7.2884   -0.4527   20.6575 C   0  0  0  0  0  0
    6.3232   -1.2497   20.0379 C   0  0  0  0  0  0
    5.7136   -0.4551   19.1107 N   0  0  0  0  0  0
    6.3599    0.7422   19.1803 C   0  0  0  0  0  0
    7.3140    0.7472   20.0794 N   0  0  0  0  0  0
    9.5934   -0.5553   23.7525 C   0  0  1  0  0  0
    9.3432   -1.9286   24.4391 C   0  0  0  0  0  0
   10.1441   -2.8558   24.3079 O   0  0  0  0  0  0
    8.2279   -2.0225   25.1823 N   0  0  0  0  0  0
    7.9025   -3.1481   26.0653 C   0  0  0  0  0  0
    6.5182   -3.7728   25.7920 C   0  0  0  0  0  0
    6.3087   -4.5200   24.4720 C   0  0  0  0  0  0
    7.3516   -4.8248   23.5836 C   0  0  0  0  0  0
    7.1001   -5.5222   22.4026 C   0  0  0  0  0  0
    5.8035   -5.9375   22.1059 C   0  0  0  0  0  0
    4.7615   -5.6511   22.9863 C   0  0  0  0  0  0
    3.5016   -6.0535   22.7082 F   0  0  0  0  0  0
    5.0135   -4.9429   24.1587 C   0  0  0  0  0  0
   11.0003   -0.3811   23.1931 C   0  0  0  0  0  0
   11.6226   -1.3057   22.3358 C   0  0  0  0  0  0
   12.9326   -1.0855   21.9080 C   0  0  0  0  0  0
   13.5695    0.0888   22.3080 C   0  0  0  0  0  0
   12.9968    0.9988   23.1275 N   0  0  0  0  0  0
   11.7472    0.7401   23.5787 C   0  0  0  0  0  0
    8.9616    2.2626   22.6146 C   0  0  0  0  0  0
    8.5007    3.5683   22.7039 C   0  0  0  0  0  0
    6.7438    7.0417   24.3020 H   0  0  0  0  0  0
    8.1473    5.9907   24.4183 H   0  0  0  0  0  0
    6.6190    5.4985   25.1370 H   0  0  0  0  0  0
    4.7703    4.8933   21.9050 H   0  0  0  0  0  0
    4.5855    5.0237   23.6551 H   0  0  0  0  0  0
    4.7990    6.4607   22.6880 H   0  0  0  0  0  0
    7.1694    5.5510   20.8232 H   0  0  0  0  0  0
    6.8254    7.0749   21.6272 H   0  0  0  0  0  0
    8.3533    6.2810   21.8927 H   0  0  0  0  0  0
    5.2479    2.9175   23.4521 H   0  0  0  0  0  0
    6.0709    0.6336   23.3636 H   0  0  0  0  0  0
    6.0281   -2.2779   20.1857 H   0  0  0  0  0  0
    4.9423   -0.7028   18.5008 H   0  0  0  0  0  0
    6.0679    1.5496   18.5262 H   0  0  0  0  0  0
    9.5296    0.1491   24.5837 H   0  0  0  0  0  0
    7.6222   -1.2170   25.2352 H   0  0  0  0  0  0
    8.6495   -3.9385   25.9568 H   0  0  0  0  0  0
    7.9863   -2.8405   27.1080 H   0  0  0  0  0  0
    6.2916   -4.4725   26.5984 H   0  0  0  0  0  0
    5.7653   -2.9864   25.8644 H   0  0  0  0  0  0
    8.3688   -4.5332   23.7888 H   0  0  0  0  0  0
    7.9146   -5.7404   21.7260 H   0  0  0  0  0  0
    5.6037   -6.4890   21.2001 H   0  0  0  0  0  0
    4.1935   -4.7293   24.8279 H   0  0  0  0  0  0
   11.1036   -2.1966   22.0075 H   0  0  0  0  0  0
   13.4175   -1.7879   21.2461 H   0  0  0  0  0  0
   14.5527    0.3473   21.9513 H   0  0  0  0  0  0
   11.3347    1.4773   24.2530 H   0  0  0  0  0  0
    9.9840    2.0974   22.3174 H   0  0  0  0  0  0
    9.1991    4.3662   22.5058 H   0  0  0  0  0  0
  1  2  1  0  0  0
  1 38  1  0  0  0
  1 39  1  0  0  0
  1 40  1  0  0  0
  2  3  1  0  0  0
  2  4  1  0  0  0
  2  5  1  0  0  0
  3 41  1  0  0  0
  3 42  1  0  0  0
  3 43  1  0  0  0
  4 44  1  0  0  0
  4 45  1  0  0  0
  4 46  1  0  0  0
  5 37  2  0  0  0
  5  6  1  0  0  0
  6  7  2  0  0  0
  6 47  1  0  0  0
  7  8  1  0  0  0
  7 48  1  0  0  0
  8  9  1  0  0  0
  8 36  2  0  0  0
  9 10  1  0  0  0
  9 17  1  0  0  0
 10 11  2  0  0  0
 10 12  1  0  0  0
 12 16  1  0  0  0
 12 13  2  0  0  0
 13 14  1  0  0  0
 13 49  1  0  0  0
 14 15  1  0  0  0
 14 50  1  0  0  0
 15 16  2  0  0  0
 15 51  1  0  0  0
 17 18  1  0  0  0
 17 30  1  0  0  0
 17 52  1  0  0  0
 18 19  2  0  0  0
 18 20  1  0  0  0
 20 21  1  0  0  0
 20 53  1  0  0  0
 21 22  1  0  0  0
 21 54  1  0  0  0
 21 55  1  0  0  0
 22 23  1  0  0  0
 22 56  1  0  0  0
 22 57  1  0  0  0
 23 29  2  0  0  0
 23 24  1  0  0  0
 24 25  2  0  0  0
 24 58  1  0  0  0
 25 26  1  0  0  0
 25 59  1  0  0  0
 26 27  2  0  0  0
 26 60  1  0  0  0
 27 28  1  0  0  0
 27 29  1  0  0  0
 29 61  1  0  0  0
 30 35  2  0  0  0
 30 31  1  0  0  0
 31 32  2  0  0  0
 31 62  1  0  0  0
 32 33  1  0  0  0
 32 63  1  0  0  0
 33 34  2  0  0  0
 33 64  1  0  0  0
 34 35  1  0  0  0
 35 65  1  0  0  0
 36 37  1  0  0  0
 36 66  1  0  0  0
 37 67  1  0  0  0
M  END
> <r_i_docking_score>
-5.23647163685126

$$$$
ligprep_5.maegz:312
                    3D
 Schrodinger Suite 2020-4.
 67 70  0  0  1  0            999 V2000
    9.2024    5.5219   25.8034 C   0  0  0  0  0  0
    9.7596    5.2791   24.3808 C   0  0  0  0  0  0
    9.2464    6.4490   23.4947 C   0  0  0  0  0  0
   11.3033    5.3845   24.3883 C   0  0  0  0  0  0
    9.3269    3.8778   23.8666 C   0  0  0  0  0  0
    8.6265    3.7325   22.6657 C   0  0  0  0  0  0
    8.3177    2.4780   22.1576 C   0  0  0  0  0  0
    8.6809    1.3165   22.8476 C   0  0  0  0  0  0
    8.3612    0.0294   22.3258 N   0  0  0  0  0  0
    9.3232   -0.9342   22.0598 C   0  0  0  0  0  0
    9.0396   -2.0368   21.5903 O   0  0  0  0  0  0
   10.7479   -0.6988   22.2771 C   0  0  0  0  0  0
   11.7955   -1.6196   22.2814 C   0  0  0  0  0  0
   12.9899   -0.8979   22.3071 C   0  0  0  0  0  0
   12.6361    0.4363   22.3214 C   0  0  0  0  0  0
   13.5692    1.8781   22.3082 Cl  0  0  0  0  0  0
   11.2823    0.5537   22.3016 O   0  0  0  0  0  0
    6.9374   -0.1847   21.8711 C   0  0  1  0  0  0
    6.6420    0.2686   20.4117 C   0  0  0  0  0  0
    7.5694    0.5051   19.6371 O   0  0  0  0  0  0
    5.3510    0.4713   20.1001 N   0  0  0  0  0  0
    4.9296    1.1659   18.8834 C   0  0  0  0  0  0
    4.6903    2.6729   19.0897 C   0  0  0  0  0  0
    3.4478    3.0093   19.9091 C   0  0  0  0  0  0
    2.3193    3.5457   19.2762 C   0  0  0  0  0  0
    1.1834    3.8671   20.0168 C   0  0  0  0  0  0
    1.1700    3.6639   21.3965 C   0  0  0  0  0  0
    2.2968    3.1470   22.0357 C   0  0  0  0  0  0
    2.2817    2.9517   23.3753 F   0  0  0  0  0  0
    3.4320    2.8225   21.2946 C   0  0  0  0  0  0
    6.3333   -1.5209   22.2877 C   0  0  0  0  0  0
    6.0458   -1.7567   23.6384 C   0  0  0  0  0  0
    5.5156   -2.9861   24.0364 C   0  0  0  0  0  0
    5.2957   -3.9619   23.0638 C   0  0  0  0  0  0
    5.5697   -3.7662   21.7503 N   0  0  0  0  0  0
    6.0684   -2.5592   21.3820 C   0  0  0  0  0  0
    9.3060    1.4466   24.0938 C   0  0  0  0  0  0
    9.6462    2.7091   24.5779 C   0  0  0  0  0  0
    9.4868    6.5036   26.1870 H   0  0  0  0  0  0
    9.5657    4.7881   26.5209 H   0  0  0  0  0  0
    8.1136    5.4734   25.8161 H   0  0  0  0  0  0
    9.6363    6.3892   22.4761 H   0  0  0  0  0  0
    8.1564    6.4687   23.4339 H   0  0  0  0  0  0
    9.5571    7.4183   23.8886 H   0  0  0  0  0  0
   11.7176    5.1713   23.4001 H   0  0  0  0  0  0
   11.6383    6.3838   24.6710 H   0  0  0  0  0  0
   11.7668    4.6925   25.0858 H   0  0  0  0  0  0
    8.3507    4.5824   22.0600 H   0  0  0  0  0  0
    7.8197    2.4513   21.2030 H   0  0  0  0  0  0
   11.6955   -2.6943   22.2151 H   0  0  0  0  0  0
   13.9901   -1.3007   22.2959 H   0  0  0  0  0  0
    6.3719    0.5770   22.4123 H   0  0  0  0  0  0
    4.6346    0.2582   20.7858 H   0  0  0  0  0  0
    5.5734    0.9824   18.0211 H   0  0  0  0  0  0
    3.9699    0.7476   18.5904 H   0  0  0  0  0  0
    5.5676    3.1395   19.5392 H   0  0  0  0  0  0
    4.6121    3.1465   18.1085 H   0  0  0  0  0  0
    2.3311    3.7158   18.2087 H   0  0  0  0  0  0
    0.3170    4.2814   19.5203 H   0  0  0  0  0  0
    0.2917    3.9114   21.9725 H   0  0  0  0  0  0
    4.2992    2.4256   21.8029 H   0  0  0  0  0  0
    6.2353   -0.9896   24.3730 H   0  0  0  0  0  0
    5.2880   -3.1771   25.0742 H   0  0  0  0  0  0
    4.8980   -4.9291   23.3332 H   0  0  0  0  0  0
    6.3014   -2.4522   20.3312 H   0  0  0  0  0  0
    9.5675    0.5732   24.6719 H   0  0  0  0  0  0
   10.1807    2.7501   25.5079 H   0  0  0  0  0  0
  1  2  1  0  0  0
  1 39  1  0  0  0
  1 40  1  0  0  0
  1 41  1  0  0  0
  2  3  1  0  0  0
  2  4  1  0  0  0
  2  5  1  0  0  0
  3 42  1  0  0  0
  3 43  1  0  0  0
  3 44  1  0  0  0
  4 45  1  0  0  0
  4 46  1  0  0  0
  4 47  1  0  0  0
  5 38  2  0  0  0
  5  6  1  0  0  0
  6  7  2  0  0  0
  6 48  1  0  0  0
  7  8  1  0  0  0
  7 49  1  0  0  0
  8  9  1  0  0  0
  8 37  2  0  0  0
  9 10  1  0  0  0
  9 18  1  0  0  0
 10 11  2  0  0  0
 10 12  1  0  0  0
 12 17  1  0  0  0
 12 13  2  0  0  0
 13 14  1  0  0  0
 13 50  1  0  0  0
 14 15  2  0  0  0
 14 51  1  0  0  0
 15 16  1  0  0  0
 15 17  1  0  0  0
 18 19  1  0  0  0
 18 31  1  0  0  0
 18 52  1  0  0  0
 19 20  2  0  0  0
 19 21  1  0  0  0
 21 22  1  0  0  0
 21 53  1  0  0  0
 22 23  1  0  0  0
 22 54  1  0  0  0
 22 55  1  0  0  0
 23 24  1  0  0  0
 23 56  1  0  0  0
 23 57  1  0  0  0
 24 30  2  0  0  0
 24 25  1  0  0  0
 25 26  2  0  0  0
 25 58  1  0  0  0
 26 27  1  0  0  0
 26 59  1  0  0  0
 27 28  2  0  0  0
 27 60  1  0  0  0
 28 29  1  0  0  0
 28 30  1  0  0  0
 30 61  1  0  0  0
 31 36  2  0  0  0
 31 32  1  0  0  0
 32 33  2  0  0  0
 32 62  1  0  0  0
 33 34  1  0  0  0
 33 63  1  0  0  0
 34 35  2  0  0  0
 34 64  1  0  0  0
 35 36  1  0  0  0
 36 65  1  0  0  0
 37 38  1  0  0  0
 37 66  1  0  0  0
 38 67  1  0  0  0
M  END
> <r_i_docking_score>
-5.58992487569831

$$$$
ligprep_5.maegz:313
                    3D
 Schrodinger Suite 2020-4.
 47 50  0  0  1  0            999 V2000
   11.2068   -0.8537   21.8010 O   0  0  0  0  0  0
   10.7027   -1.2328   23.1222 S   0  0  0  0  0  0
   11.1706   -2.4525   23.7846 O   0  0  0  0  0  0
   10.8823    0.2235   24.3316 C   0  0  0  0  0  0
   11.4301    1.4999   23.7046 C   0  0  0  0  0  0
   10.6671    2.6740   23.7250 C   0  0  0  0  0  0
   11.1520    3.8408   23.1346 C   0  0  0  0  0  0
   12.4016    3.8448   22.5199 C   0  0  0  0  0  0
   13.1695    2.6813   22.5007 C   0  0  0  0  0  0
   12.6967    1.5154   23.1026 C   0  0  0  0  0  0
   13.4733    0.4065   23.1038 F   0  0  0  0  0  0
    8.9186   -1.4491   22.9460 C   0  0  0  0  0  0
    8.3856   -2.6690   23.1915 O   0  0  0  0  0  0
    7.0580   -2.4940   22.9648 C   0  0  0  0  0  0
    6.1486   -3.6634   23.1376 C   0  0  0  0  0  0
    4.8130   -3.4604   23.5005 C   0  0  0  0  0  0
    3.9690   -4.5516   23.6872 C   0  0  0  0  0  0
    4.4490   -5.8413   23.4852 C   0  0  0  0  0  0
    3.6244   -6.8954   23.6706 F   0  0  0  0  0  0
    5.7700   -6.0525   23.1007 C   0  0  0  0  0  0
    6.6249   -4.9644   22.9369 C   0  0  0  0  0  0
    6.7293   -1.2673   22.6218 N   0  0  0  0  0  0
    7.8814   -0.6238   22.5432 C   0  0  0  0  0  0
    7.9424    1.0795   21.9425 S   0  0  0  0  0  0
    7.3745    1.9252   22.9986 O   0  0  0  0  0  0
    9.2833    1.3160   21.4020 O   0  0  0  0  0  0
    6.8406    1.0706   20.5485 C   0  0  0  0  0  0
    5.7617    1.9527   20.4903 C   0  0  0  0  0  0
    4.9262    1.9363   19.3790 C   0  0  0  0  0  0
    5.1698    1.0199   18.3609 C   0  0  0  0  0  0
    6.2257    0.1210   18.4299 C   0  0  0  0  0  0
    7.0831    0.1580   19.5202 C   0  0  0  0  0  0
   11.5690   -0.1050   25.1081 H   0  0  0  0  0  0
    9.9139    0.3790   24.8047 H   0  0  0  0  0  0
    9.6874    2.6810   24.1823 H   0  0  0  0  0  0
   10.5473    4.7361   23.1366 H   0  0  0  0  0  0
   12.7734    4.7458   22.0539 H   0  0  0  0  0  0
   14.1422    2.6816   22.0321 H   0  0  0  0  0  0
    4.4302   -2.4614   23.6571 H   0  0  0  0  0  0
    2.9419   -4.4079   23.9875 H   0  0  0  0  0  0
    6.1284   -7.0580   22.9373 H   0  0  0  0  0  0
    7.6532   -5.1350   22.6475 H   0  0  0  0  0  0
    5.5801    2.6627   21.2840 H   0  0  0  0  0  0
    4.1010    2.6307   19.3054 H   0  0  0  0  0  0
    4.5186    0.9794   17.5081 H   0  0  0  0  0  0
    6.3697   -0.5929   17.6331 H   0  0  0  0  0  0
    7.9159   -0.5311   19.5730 H   0  0  0  0  0  0
  1  2  2  0  0  0
  2  3  2  0  0  0
  2  4  1  0  0  0
  2 12  1  0  0  0
  4  5  1  0  0  0
  4 33  1  0  0  0
  4 34  1  0  0  0
  5 10  2  0  0  0
  5  6  1  0  0  0
  6  7  2  0  0  0
  6 35  1  0  0  0
  7  8  1  0  0  0
  7 36  1  0  0  0
  8  9  2  0  0  0
  8 37  1  0  0  0
  9 10  1  0  0  0
  9 38  1  0  0  0
 10 11  1  0  0  0
 12 23  2  0  0  0
 12 13  1  0  0  0
 13 14  1  0  0  0
 14 15  1  0  0  0
 14 22  2  0  0  0
 15 21  2  0  0  0
 15 16  1  0  0  0
 16 17  2  0  0  0
 16 39  1  0  0  0
 17 18  1  0  0  0
 17 40  1  0  0  0
 18 19  1  0  0  0
 18 20  2  0  0  0
 20 21  1  0  0  0
 20 41  1  0  0  0
 21 42  1  0  0  0
 22 23  1  0  0  0
 23 24  1  0  0  0
 24 25  2  0  0  0
 24 26  2  0  0  0
 24 27  1  0  0  0
 27 32  2  0  0  0
 27 28  1  0  0  0
 28 29  2  0  0  0
 28 43  1  0  0  0
 29 30  1  0  0  0
 29 44  1  0  0  0
 30 31  2  0  0  0
 30 45  1  0  0  0
 31 32  1  0  0  0
 31 46  1  0  0  0
 32 47  1  0  0  0
M  END
> <r_i_docking_score>
-7.16934895139048

$$$$
ligprep_5.maegz:314
                    3D
 Schrodinger Suite 2020-4.
 51 53  0  0  1  0            999 V2000
   11.9747   -2.0039   22.3310 C   0  0  0  0  0  0
   12.5325   -0.5801   22.4068 C   0  0  0  0  0  0
   11.4663    0.3463   22.5685 O   0  0  0  0  0  0
   11.7250    1.6635   22.7101 C   0  0  0  0  0  0
   12.8598    2.1406   22.7082 O   0  0  0  0  0  0
   10.4997    2.4571   22.8982 C   0  0  0  0  0  0
   10.4336    3.8415   23.1082 C   0  0  0  0  0  0
   11.5487    4.8793   23.1225 C   0  0  0  0  0  0
    9.1062    4.1992   23.3314 N   0  0  0  0  0  0
    8.4684    5.8041   23.5713 S   0  0  0  0  0  0
    7.6429    6.1160   21.9077 C   0  0  0  0  0  0
    7.4321    5.6722   24.6003 O   0  0  0  0  0  0
    9.5777    6.7464   23.7435 O   0  0  0  0  0  0
    8.3012    3.0770   23.2127 C   0  0  0  0  0  0
    6.9119    2.9393   23.3431 C   0  0  0  0  0  0
    6.3617    1.6837   23.1092 C   0  0  0  0  0  0
    7.1359    0.5970   22.7153 C   0  0  0  0  0  0
    6.4930   -0.6264   22.4358 N   0  0  0  0  0  0
    6.2315   -1.0355   21.0905 C   0  0  0  0  0  0
    6.1949   -2.2213   20.7628 O   0  0  0  0  0  0
    5.9685   -0.0241   20.0929 C   0  0  0  0  0  0
    6.0711   -0.0808   18.7084 C   0  0  0  0  0  0
    5.6013    1.1350   18.2112 C   0  0  0  0  0  0
    5.1686    1.8595   19.3061 C   0  0  0  0  0  0
    5.3758    1.1497   20.4438 O   0  0  0  0  0  0
    6.4715   -1.8400   23.7531 S   0  0  0  0  0  0
    8.0610   -2.8103   23.4613 C   0  0  0  0  0  0
    6.6055   -1.1196   25.0239 O   0  0  0  0  0  0
    5.3298   -2.7326   23.5256 O   0  0  0  0  0  0
    8.5234    0.7269   22.6135 C   0  0  0  0  0  0
    9.1377    1.9716   22.8768 C   0  0  0  0  0  0
   12.7755   -2.7266   22.1758 H   0  0  0  0  0  0
   11.4612   -2.2745   23.2538 H   0  0  0  0  0  0
   11.2670   -2.1125   21.5082 H   0  0  0  0  0  0
   13.1009   -0.3487   21.5081 H   0  0  0  0  0  0
   13.2299   -0.4846   23.2386 H   0  0  0  0  0  0
   12.5367    4.4916   22.8907 H   0  0  0  0  0  0
   11.3713    5.6556   22.3786 H   0  0  0  0  0  0
   11.6388    5.3584   24.0974 H   0  0  0  0  0  0
    7.3014    7.1490   21.8747 H   0  0  0  0  0  0
    8.3677    5.9479   21.1134 H   0  0  0  0  0  0
    6.7954    5.4440   21.7806 H   0  0  0  0  0  0
    6.2698    3.7661   23.6060 H   0  0  0  0  0  0
    5.2905    1.5616   23.1977 H   0  0  0  0  0  0
    6.4508   -0.9090   18.1276 H   0  0  0  0  0  0
    5.5689    1.4427   17.1761 H   0  0  0  0  0  0
    4.7185    2.8353   19.4223 H   0  0  0  0  0  0
    8.0950   -3.6355   24.1688 H   0  0  0  0  0  0
    8.0657   -3.1973   22.4407 H   0  0  0  0  0  0
    8.9103   -2.1479   23.6197 H   0  0  0  0  0  0
    9.1091   -0.1284   22.3155 H   0  0  0  0  0  0
  1  2  1  0  0  0
  1 32  1  0  0  0
  1 33  1  0  0  0
  1 34  1  0  0  0
  2  3  1  0  0  0
  2 35  1  0  0  0
  2 36  1  0  0  0
  3  4  1  0  0  0
  4  5  2  0  0  0
  4  6  1  0  0  0
  6 31  1  0  0  0
  6  7  2  0  0  0
  7  8  1  0  0  0
  7  9  1  0  0  0
  8 37  1  0  0  0
  8 38  1  0  0  0
  8 39  1  0  0  0
  9 10  1  0  0  0
  9 14  1  0  0  0
 10 11  1  0  0  0
 10 12  2  0  0  0
 10 13  2  0  0  0
 11 40  1  0  0  0
 11 41  1  0  0  0
 11 42  1  0  0  0
 14 31  2  0  0  0
 14 15  1  0  0  0
 15 16  2  0  0  0
 15 43  1  0  0  0
 16 17  1  0  0  0
 16 44  1  0  0  0
 17 18  1  0  0  0
 17 30  2  0  0  0
 18 19  1  0  0  0
 18 26  1  0  0  0
 19 20  2  0  0  0
 19 21  1  0  0  0
 21 25  1  0  0  0
 21 22  2  0  0  0
 22 23  1  0  0  0
 22 45  1  0  0  0
 23 24  2  0  0  0
 23 46  1  0  0  0
 24 25  1  0  0  0
 24 47  1  0  0  0
 26 27  1  0  0  0
 26 28  2  0  0  0
 26 29  2  0  0  0
 27 48  1  0  0  0
 27 49  1  0  0  0
 27 50  1  0  0  0
 30 31  1  0  0  0
 30 51  1  0  0  0
M  END
> <r_i_docking_score>
-3.85196118156132

$$$$
ligprep_5.maegz:315
                    3D
 Schrodinger Suite 2020-4.
 48 50  0  0  1  0            999 V2000
   12.4848   -1.8367   21.9925 C   0  0  0  0  0  0
   11.7404   -0.6989   22.4078 O   0  0  0  0  0  0
   12.3489    0.4721   22.6952 C   0  0  0  0  0  0
   13.5700    0.6319   22.7080 O   0  0  0  0  0  0
   11.3763    1.5456   22.9576 C   0  0  0  0  0  0
   11.6693    2.8979   23.1610 C   0  0  0  0  0  0
   12.9778    3.6567   22.9717 C   0  0  0  0  0  0
   10.5216    3.5283   23.6274 N   0  0  0  0  0  0
   10.4253    5.1640   24.2159 S   0  0  0  0  0  0
   10.0348    6.1165   22.6516 C   0  0  0  0  0  0
    9.2640    5.2119   25.1087 O   0  0  0  0  0  0
   11.7534    5.5461   24.7051 O   0  0  0  0  0  0
    9.4306    2.6929   23.4166 C   0  0  0  0  0  0
    8.0527    2.9182   23.5662 C   0  0  0  0  0  0
    7.1861    1.8600   23.2950 C   0  0  0  0  0  0
    7.6438    0.6131   22.8765 C   0  0  0  0  0  0
    6.7234   -0.4394   22.6887 N   0  0  0  0  0  0
    6.4125   -0.9131   21.3805 C   0  0  0  0  0  0
    6.3748   -2.1134   21.1076 O   0  0  0  0  0  0
    6.0998    0.0676   20.3716 C   0  0  0  0  0  0
    5.3704    1.2526   20.4221 C   0  0  0  0  0  0
    5.2036    1.6898   19.1087 C   0  0  0  0  0  0
    5.8241    0.7475   18.3082 C   0  0  0  0  0  0
    6.3402   -0.2507   19.0698 O   0  0  0  0  0  0
    6.4692   -1.5203   24.0939 S   0  0  0  0  0  0
    7.9518   -2.6813   24.0193 C   0  0  0  0  0  0
    6.5929   -0.7023   25.3055 O   0  0  0  0  0  0
    5.2542   -2.3073   23.8536 O   0  0  0  0  0  0
    9.0145    0.3931   22.7221 C   0  0  0  0  0  0
    9.9365    1.4286   22.9910 C   0  0  0  0  0  0
   11.8215   -2.6967   21.8940 H   0  0  0  0  0  0
   12.9553   -1.6609   21.0246 H   0  0  0  0  0  0
   13.2652   -2.0905   22.7082 H   0  0  0  0  0  0
   13.7187    3.0951   22.4058 H   0  0  0  0  0  0
   12.8213    4.5738   22.4051 H   0  0  0  0  0  0
   13.4549    3.9474   23.9052 H   0  0  0  0  0  0
    9.9679    7.1722   22.9008 H   0  0  0  0  0  0
   10.8254    5.9476   21.9223 H   0  0  0  0  0  0
    9.0829    5.7649   22.2573 H   0  0  0  0  0  0
    7.6557    3.8697   23.8852 H   0  0  0  0  0  0
    6.1242    2.0117   23.4309 H   0  0  0  0  0  0
    4.9764    1.7324   21.3057 H   0  0  0  0  0  0
    4.6884    2.5820   18.7780 H   0  0  0  0  0  0
    5.9512    0.6551   17.2412 H   0  0  0  0  0  0
    7.8293   -3.4422   24.7882 H   0  0  0  0  0  0
    7.9881   -3.1484   23.0359 H   0  0  0  0  0  0
    8.8597   -2.1108   24.2054 H   0  0  0  0  0  0
    9.3516   -0.5784   22.3957 H   0  0  0  0  0  0
  1  2  1  0  0  0
  1 31  1  0  0  0
  1 32  1  0  0  0
  1 33  1  0  0  0
  2  3  1  0  0  0
  3  4  2  0  0  0
  3  5  1  0  0  0
  5 30  1  0  0  0
  5  6  2  0  0  0
  6  7  1  0  0  0
  6  8  1  0  0  0
  7 34  1  0  0  0
  7 35  1  0  0  0
  7 36  1  0  0  0
  8  9  1  0  0  0
  8 13  1  0  0  0
  9 10  1  0  0  0
  9 11  2  0  0  0
  9 12  2  0  0  0
 10 37  1  0  0  0
 10 38  1  0  0  0
 10 39  1  0  0  0
 13 30  2  0  0  0
 13 14  1  0  0  0
 14 15  2  0  0  0
 14 40  1  0  0  0
 15 16  1  0  0  0
 15 41  1  0  0  0
 16 17  1  0  0  0
 16 29  2  0  0  0
 17 18  1  0  0  0
 17 25  1  0  0  0
 18 19  2  0  0  0
 18 20  1  0  0  0
 20 24  1  0  0  0
 20 21  2  0  0  0
 21 22  1  0  0  0
 21 42  1  0  0  0
 22 23  2  0  0  0
 22 43  1  0  0  0
 23 24  1  0  0  0
 23 44  1  0  0  0
 25 26  1  0  0  0
 25 27  2  0  0  0
 25 28  2  0  0  0
 26 45  1  0  0  0
 26 46  1  0  0  0
 26 47  1  0  0  0
 29 30  1  0  0  0
 29 48  1  0  0  0
M  END
> <r_i_docking_score>
-4.50389598465688

$$$$
ligprep_5.maegz:316
                    3D
 Schrodinger Suite 2020-4.
 33 35  0  0  1  0            999 V2000
    7.8472   -3.1771   22.9871 O   0  0  0  0  0  0
    8.6952   -2.5049   23.5446 C   0  0  0  0  0  0
    9.4802   -2.9596   24.5576 O   0  0  0  0  0  0
    9.0256   -1.0173   23.2206 C   0  0  1  0  0  0
   10.5118   -0.7264   22.9440 C   0  0  0  0  0  0
   11.3521   -1.6470   22.3016 C   0  0  0  0  0  0
   12.6852   -1.3279   22.0553 C   0  0  0  0  0  0
   13.1871   -0.0920   22.4572 C   0  0  0  0  0  0
   12.3658    0.8247   23.1075 C   0  0  0  0  0  0
   11.0315    0.5081   23.3471 C   0  0  0  0  0  0
    8.1446   -0.5040   22.1456 N   0  0  0  0  0  0
    8.1693   -1.0089   20.7702 C   0  0  0  0  0  0
    7.1494   -0.1554   20.0885 C   0  0  0  0  0  0
    6.6833   -0.1613   18.7737 C   0  0  0  0  0  0
    5.6993    0.7524   18.3889 C   0  0  0  0  0  0
    5.1904    1.6681   19.3157 C   0  0  0  0  0  0
    5.6576    1.6679   20.6327 C   0  0  0  0  0  0
    6.6353    0.7412   21.0050 C   0  0  0  0  0  0
    7.2802    0.5243   22.3391 C   0  0  0  0  0  0
    7.0785    1.1399   23.3864 O   0  0  0  0  0  0
    9.2747   -3.8798   24.7437 H   0  0  0  0  0  0
    8.7886   -0.4954   24.1501 H   0  0  0  0  0  0
   10.9752   -2.6012   21.9589 H   0  0  0  0  0  0
   13.3235   -2.0334   21.5423 H   0  0  0  0  0  0
   14.2182    0.1593   22.2606 H   0  0  0  0  0  0
   12.7623    1.7799   23.4197 H   0  0  0  0  0  0
   10.3947    1.2291   23.8427 H   0  0  0  0  0  0
    9.1664   -0.9283   20.3379 H   0  0  0  0  0  0
    7.8920   -2.0604   20.7415 H   0  0  0  0  0  0
    7.0688   -0.8656   18.0522 H   0  0  0  0  0  0
    5.3342    0.7584   17.3714 H   0  0  0  0  0  0
    4.4420    2.3869   19.0080 H   0  0  0  0  0  0
    5.2573    2.3780   21.3421 H   0  0  0  0  0  0
  1  2  2  0  0  0
  2  3  1  0  0  0
  2  4  1  0  0  0
  3 21  1  0  0  0
  4  5  1  0  0  0
  4 11  1  0  0  0
  4 22  1  0  0  0
  5 10  2  0  0  0
  5  6  1  0  0  0
  6  7  2  0  0  0
  6 23  1  0  0  0
  7  8  1  0  0  0
  7 24  1  0  0  0
  8  9  2  0  0  0
  8 25  1  0  0  0
  9 10  1  0  0  0
  9 26  1  0  0  0
 10 27  1  0  0  0
 11 19  1  0  0  0
 11 12  1  0  0  0
 12 13  1  0  0  0
 12 28  1  0  0  0
 12 29  1  0  0  0
 13 18  2  0  0  0
 13 14  1  0  0  0
 14 15  2  0  0  0
 14 30  1  0  0  0
 15 16  1  0  0  0
 15 31  1  0  0  0
 16 17  2  0  0  0
 16 32  1  0  0  0
 17 18  1  0  0  0
 17 33  1  0  0  0
 18 19  1  0  0  0
 19 20  2  0  0  0
M  END
> <r_i_docking_score>
-5.99557149026822

$$$$
ligprep_5.maegz:317
                    3D
 Schrodinger Suite 2020-4.
 51 54  0  0  1  0            999 V2000
    6.5404    1.6422   28.5947 C   0  0  0  0  0  0
    6.1291    1.5438   27.1169 C   0  0  0  0  0  0
    7.2553    1.4912   26.2436 O   0  0  0  0  0  0
    7.9694    0.3464   26.0811 C   0  0  0  0  0  0
    7.7634   -0.6965   26.7074 O   0  0  0  0  0  0
    9.0478    0.5128   25.0908 C   0  0  0  0  0  0
    9.5773    1.7620   24.6928 C   0  0  0  0  0  0
   10.6934    1.7227   23.8535 C   0  0  0  0  0  0
   11.5308    2.8564   23.3303 C   0  0  0  0  0  0
   11.0871    4.1737   23.5080 C   0  0  0  0  0  0
   11.8718    5.2488   23.0968 C   0  0  0  0  0  0
   13.1108    5.0137   22.5078 C   0  0  0  0  0  0
   13.5602    3.7113   22.3143 C   0  0  0  0  0  0
   12.7692    2.6372   22.7103 C   0  0  0  0  0  0
   11.0840    0.0729   23.4771 S   0  0  0  0  0  0
    9.7543   -0.5099   24.4239 C   0  0  0  0  0  0
    9.6052   -1.8872   24.4410 N   0  0  0  0  0  0
    8.4353   -2.5450   24.3324 C   0  0  0  0  0  0
    7.3610   -2.0060   24.0576 O   0  0  0  0  0  0
    8.5089   -4.0586   24.5694 C   0  0  0  0  0  0
    7.4430   -4.8422   23.8258 C   0  0  0  0  0  0
    7.4280   -5.1947   22.4813 C   0  0  0  0  0  0
    5.9692   -6.0515   22.1225 S   0  0  0  0  0  0
    5.4979   -5.8589   23.7880 C   0  0  0  0  0  0
    4.2434   -6.4683   24.3413 C   0  0  0  0  0  0
    4.1366   -6.7081   25.7178 C   0  0  0  0  0  0
    2.9950   -7.3058   26.2451 C   0  0  0  0  0  0
    1.9485   -7.6599   25.3980 C   0  0  0  0  0  0
    2.0305   -7.4121   24.0307 C   0  0  0  0  0  0
    3.1726   -6.8126   23.5070 C   0  0  0  0  0  0
    6.3772   -5.2096   24.5142 N   0  0  0  0  0  0
    5.6627    1.7295   29.2349 H   0  0  0  0  0  0
    7.1678    2.5152   28.7651 H   0  0  0  0  0  0
    7.0974    0.7606   28.9136 H   0  0  0  0  0  0
    5.4808    0.6805   26.9531 H   0  0  0  0  0  0
    5.5425    2.4236   26.8496 H   0  0  0  0  0  0
    9.1788    2.6926   25.0685 H   0  0  0  0  0  0
   10.1339    4.3800   23.9703 H   0  0  0  0  0  0
   11.5210    6.2602   23.2411 H   0  0  0  0  0  0
   13.7328    5.8452   22.2112 H   0  0  0  0  0  0
   14.5421    3.5273   21.9079 H   0  0  0  0  0  0
   13.1543    1.6389   22.5678 H   0  0  0  0  0  0
   10.4385   -2.4318   24.2784 H   0  0  0  0  0  0
    9.4993   -4.4255   24.3081 H   0  0  0  0  0  0
    8.4297   -4.2041   25.6486 H   0  0  0  0  0  0
    8.1652   -4.9914   21.7212 H   0  0  0  0  0  0
    4.9486   -6.4544   26.3849 H   0  0  0  0  0  0
    2.9284   -7.5057   27.3044 H   0  0  0  0  0  0
    1.0672   -8.1315   25.8076 H   0  0  0  0  0  0
    1.2149   -7.6865   23.3784 H   0  0  0  0  0  0
    3.2243   -6.6348   22.4422 H   0  0  0  0  0  0
  1  2  1  0  0  0
  1 32  1  0  0  0
  1 33  1  0  0  0
  1 34  1  0  0  0
  2  3  1  0  0  0
  2 35  1  0  0  0
  2 36  1  0  0  0
  3  4  1  0  0  0
  4  5  2  0  0  0
  4  6  1  0  0  0
  6 16  2  0  0  0
  6  7  1  0  0  0
  7  8  2  0  0  0
  7 37  1  0  0  0
  8  9  1  0  0  0
  8 15  1  0  0  0
  9 14  2  0  0  0
  9 10  1  0  0  0
 10 11  2  0  0  0
 10 38  1  0  0  0
 11 12  1  0  0  0
 11 39  1  0  0  0
 12 13  2  0  0  0
 12 40  1  0  0  0
 13 14  1  0  0  0
 13 41  1  0  0  0
 14 42  1  0  0  0
 15 16  1  0  0  0
 16 17  1  0  0  0
 17 18  1  0  0  0
 17 43  1  0  0  0
 18 19  2  0  0  0
 18 20  1  0  0  0
 20 21  1  0  0  0
 20 44  1  0  0  0
 20 45  1  0  0  0
 21 31  1  0  0  0
 21 22  2  0  0  0
 22 23  1  0  0  0
 22 46  1  0  0  0
 23 24  1  0  0  0
 24 25  1  0  0  0
 24 31  2  0  0  0
 25 30  2  0  0  0
 25 26  1  0  0  0
 26 27  2  0  0  0
 26 47  1  0  0  0
 27 28  1  0  0  0
 27 48  1  0  0  0
 28 29  2  0  0  0
 28 49  1  0  0  0
 29 30  1  0  0  0
 29 50  1  0  0  0
 30 51  1  0  0  0
M  END
> <r_i_docking_score>
-5.7152604840269

$$$$
ligprep_5.maegz:318
                    3D
 Schrodinger Suite 2020-4.
 46 48  0  0  1  0            999 V2000
    5.6081   -4.6485   21.4891 C   0  0  0  0  0  0
    6.7101   -5.0506   22.4904 C   0  0  2  0  0  0
    6.1995   -5.2343   23.9437 C   0  0  0  0  0  0
    5.0285   -6.2254   24.1191 C   0  0  0  0  0  0
    4.6628   -6.4528   25.5708 C   0  0  0  0  0  0
    5.2000   -6.0543   26.7895 C   0  0  0  0  0  0
    4.4003   -6.6050   27.7911 C   0  0  0  0  0  0
    3.4022   -7.3090   27.1421 C   0  0  0  0  0  0
    3.5680   -7.2261   25.7972 O   0  0  0  0  0  0
    7.8715   -4.1538   22.4227 N   0  0  0  0  0  0
    7.9186   -2.8631   22.7945 C   0  0  0  0  0  0
    6.9161   -2.1666   22.9576 O   0  0  0  0  0  0
    9.1918   -2.4619   22.9891 N   0  0  0  0  0  0
    9.6508   -1.2329   23.3970 C   0  0  0  0  0  0
    8.9442   -0.3719   24.1635 C   0  0  0  0  0  0
    9.3443    0.8720   24.5807 N   0  0  0  0  0  0
    8.4780    1.6895   25.4419 C   0  0  0  0  0  0
   10.5198    1.4362   24.1350 C   0  0  0  0  0  0
   10.8086    2.6248   24.3097 O   0  0  0  0  0  0
   11.4428    0.4706   23.3908 C   0  0  0  0  0  0
   12.7140    0.9224   23.0186 C   0  0  0  0  0  0
   13.5695    0.0877   22.3078 C   0  0  0  0  0  0
   13.1700   -1.1991   21.9504 C   0  0  0  0  0  0
   11.9001   -1.6526   22.3016 C   0  0  0  0  0  0
   11.0198   -0.8228   23.0134 C   0  0  0  0  0  0
    4.7930   -5.3682   21.5091 H   0  0  0  0  0  0
    5.1718   -3.6800   21.7355 H   0  0  0  0  0  0
    5.9855   -4.6184   20.4663 H   0  0  0  0  0  0
    7.0922   -6.0213   22.1678 H   0  0  0  0  0  0
    5.9056   -4.2670   24.3549 H   0  0  0  0  0  0
    7.0381   -5.5719   24.5554 H   0  0  0  0  0  0
    5.2736   -7.1756   23.6427 H   0  0  0  0  0  0
    4.1497   -5.8478   23.5970 H   0  0  0  0  0  0
    6.0781   -5.4425   26.9330 H   0  0  0  0  0  0
    4.5363   -6.5082   28.8583 H   0  0  0  0  0  0
    2.5706   -7.9082   27.4845 H   0  0  0  0  0  0
    8.7101   -4.5572   22.0255 H   0  0  0  0  0  0
    9.9091   -3.1466   22.8068 H   0  0  0  0  0  0
    7.9372   -0.5766   24.5002 H   0  0  0  0  0  0
    8.9306    2.6248   25.7752 H   0  0  0  0  0  0
    7.5548    1.9358   24.9162 H   0  0  0  0  0  0
    8.2174    1.1286   26.3401 H   0  0  0  0  0  0
   13.0497    1.9193   23.2725 H   0  0  0  0  0  0
   14.5380    0.4600   22.0149 H   0  0  0  0  0  0
   13.8351   -1.8383   21.3888 H   0  0  0  0  0  0
   11.6063   -2.6459   21.9954 H   0  0  0  0  0  0
  1  2  1  0  0  0
  1 26  1  0  0  0
  1 27  1  0  0  0
  1 28  1  0  0  0
  2  3  1  0  0  0
  2 10  1  0  0  0
  2 29  1  0  0  0
  3  4  1  0  0  0
  3 30  1  0  0  0
  3 31  1  0  0  0
  4  5  1  0  0  0
  4 32  1  0  0  0
  4 33  1  0  0  0
  5  9  1  0  0  0
  5  6  2  0  0  0
  6  7  1  0  0  0
  6 34  1  0  0  0
  7  8  2  0  0  0
  7 35  1  0  0  0
  8  9  1  0  0  0
  8 36  1  0  0  0
 10 11  1  0  0  0
 10 37  1  0  0  0
 11 12  2  0  0  0
 11 13  1  0  0  0
 13 14  1  0  0  0
 13 38  1  0  0  0
 14 25  1  0  0  0
 14 15  2  0  0  0
 15 16  1  0  0  0
 15 39  1  0  0  0
 16 17  1  0  0  0
 16 18  1  0  0  0
 17 40  1  0  0  0
 17 41  1  0  0  0
 17 42  1  0  0  0
 18 19  2  0  0  0
 18 20  1  0  0  0
 20 25  2  0  0  0
 20 21  1  0  0  0
 21 22  2  0  0  0
 21 43  1  0  0  0
 22 23  1  0  0  0
 22 44  1  0  0  0
 23 24  2  0  0  0
 23 45  1  0  0  0
 24 25  1  0  0  0
 24 46  1  0  0  0
M  END
> <r_i_docking_score>
-6.00406128395912

$$$$
ligprep_5.maegz:319
                    3D
 Schrodinger Suite 2020-4.
 38 40  0  0  1  0            999 V2000
    9.0669    1.9704   25.2962 O   0  0  0  0  0  0
    9.9222    1.1571   24.4280 S   0  0  0  0  0  0
   10.6393   -0.0182   24.9322 O   0  0  0  0  0  0
    8.9647    0.6229   23.0419 N   0  0  0  0  0  0
    7.9508    1.3615   22.4012 C   0  0  0  0  0  0
    7.7375    2.7261   22.6485 C   0  0  0  0  0  0
    6.7052    3.4129   22.0067 C   0  0  0  0  0  0
    5.8744    2.7467   21.1086 C   0  0  0  0  0  0
    6.0854    1.3988   20.8346 C   0  0  0  0  0  0
    7.1180    0.7101   21.4741 C   0  0  0  0  0  0
    7.3342   -1.0035   21.1068 S   0  0  0  0  0  0
    6.1742   -1.8266   22.2239 C   0  0  0  0  0  0
    6.5163   -3.2981   22.3804 C   0  0  0  0  0  0
    6.0945   -4.2129   21.4121 C   0  0  0  0  0  0
    6.3958   -5.5667   21.5397 C   0  0  0  0  0  0
    7.1395   -6.0141   22.6303 C   0  0  0  0  0  0
    7.5697   -5.1062   23.6019 C   0  0  0  0  0  0
    8.4937   -5.6528   24.9556 Cl  0  0  0  0  0  0
    7.2597   -3.7478   23.4782 C   0  0  0  0  0  0
    7.6876   -2.8711   24.4166 F   0  0  0  0  0  0
   11.1517    2.2450   23.6734 C   0  0  0  0  0  0
   11.1100    3.6401   23.7880 C   0  0  0  0  0  0
   12.1430    4.2714   23.1188 C   0  0  0  0  0  0
   12.4780    5.9472   23.0466 Cl  0  0  0  0  0  0
   13.1699    3.1406   22.3083 S   0  0  0  0  0  0
   12.2293    1.8137   22.9015 C   0  0  0  0  0  0
   12.6883    0.2070   22.4910 Cl  0  0  0  0  0  0
    9.1976   -0.2762   22.6486 H   0  0  0  0  0  0
    8.3595    3.2776   23.3341 H   0  0  0  0  0  0
    6.5502    4.4650   22.1953 H   0  0  0  0  0  0
    5.0840    3.2867   20.6060 H   0  0  0  0  0  0
    5.4439    0.8882   20.1302 H   0  0  0  0  0  0
    5.1695   -1.7178   21.8188 H   0  0  0  0  0  0
    6.1615   -1.3236   23.1909 H   0  0  0  0  0  0
    5.5726   -3.8629   20.5374 H   0  0  0  0  0  0
    6.0686   -6.2644   20.7836 H   0  0  0  0  0  0
    7.3896   -7.0625   22.7074 H   0  0  0  0  0  0
   10.3584    4.1718   24.3532 H   0  0  0  0  0  0
  1  2  2  0  0  0
  2  3  2  0  0  0
  2  4  1  0  0  0
  2 21  1  0  0  0
  4  5  1  0  0  0
  4 28  1  0  0  0
  5 10  2  0  0  0
  5  6  1  0  0  0
  6  7  2  0  0  0
  6 29  1  0  0  0
  7  8  1  0  0  0
  7 30  1  0  0  0
  8  9  2  0  0  0
  8 31  1  0  0  0
  9 10  1  0  0  0
  9 32  1  0  0  0
 10 11  1  0  0  0
 11 12  1  0  0  0
 12 13  1  0  0  0
 12 33  1  0  0  0
 12 34  1  0  0  0
 13 19  2  0  0  0
 13 14  1  0  0  0
 14 15  2  0  0  0
 14 35  1  0  0  0
 15 16  1  0  0  0
 15 36  1  0  0  0
 16 17  2  0  0  0
 16 37  1  0  0  0
 17 18  1  0  0  0
 17 19  1  0  0  0
 19 20  1  0  0  0
 21 26  2  0  0  0
 21 22  1  0  0  0
 22 23  2  0  0  0
 22 38  1  0  0  0
 23 24  1  0  0  0
 23 25  1  0  0  0
 25 26  1  0  0  0
 26 27  1  0  0  0
M  END
> <r_i_docking_score>
-5.07761353841283

$$$$
ligprep_5.maegz:320
                    3D
 Schrodinger Suite 2020-4.
 38 40  0  0  1  0            999 V2000
    8.1857   -2.6125   26.6868 C   0  0  0  0  0  0
    8.2225   -2.6602   25.1390 C   0  0  0  0  0  0
    8.5908   -4.1124   24.7355 C   0  0  0  0  0  0
    6.8080   -2.3697   24.5872 C   0  0  0  0  0  0
    9.2181   -1.6008   24.5954 C   0  0  0  0  0  0
   10.2930   -1.9448   23.7596 C   0  0  0  0  0  0
   11.1675   -0.9707   23.2835 C   0  0  0  0  0  0
   10.9821    0.3695   23.6290 C   0  0  0  0  0  0
   11.9098    1.4138   23.1074 C   0  0  0  0  0  0
   13.1516    1.2682   22.7079 N   0  0  0  0  0  0
   13.5696    2.5230   22.2801 N   0  0  0  0  0  0
   12.5490    3.3231   22.4489 C   0  0  0  0  0  0
   12.3929    4.9973   21.9260 S   0  0  0  0  0  0
   11.3767    5.6210   23.2046 C   0  0  0  0  0  0
   10.0200    5.9352   23.1607 C   0  0  0  0  0  0
    9.4769    6.3534   24.2865 N   0  0  0  0  0  0
   10.3550    6.4007   25.2615 C   0  0  0  0  0  0
   10.0360    6.7766   26.6065 N   0  3  0  0  0  0
    8.8751    7.0898   26.8589 O   0  0  0  0  0  0
   10.9368    6.7482   27.4414 O   0  5  0  0  0  0
   11.9698    5.9484   24.7993 S   0  0  0  0  0  0
   11.4633    2.6883   22.9568 O   0  0  0  0  0  0
    9.9201    0.7252   24.4592 C   0  0  0  0  0  0
    9.0483   -0.2512   24.9382 C   0  0  0  0  0  0
    7.5075   -3.3609   27.1050 H   0  0  0  0  0  0
    7.8563   -1.6443   27.0660 H   0  0  0  0  0  0
    9.1695   -2.8088   27.1071 H   0  0  0  0  0  0
    8.5835   -4.2451   23.6528 H   0  0  0  0  0  0
    9.5795   -4.3953   25.1036 H   0  0  0  0  0  0
    7.8833   -4.8356   25.1446 H   0  0  0  0  0  0
    6.7947   -2.3905   23.4972 H   0  0  0  0  0  0
    6.0792   -3.1057   24.9346 H   0  0  0  0  0  0
    6.4386   -1.3895   24.8973 H   0  0  0  0  0  0
   10.4729   -2.9653   23.4583 H   0  0  0  0  0  0
   11.9823   -1.2655   22.6379 H   0  0  0  0  0  0
    9.3951    5.8291   22.2845 H   0  0  0  0  0  0
    9.7624    1.7566   24.7410 H   0  0  0  0  0  0
    8.2364    0.0529   25.5801 H   0  0  0  0  0  0
  1  2  1  0  0  0
  1 25  1  0  0  0
  1 26  1  0  0  0
  1 27  1  0  0  0
  2  3  1  0  0  0
  2  4  1  0  0  0
  2  5  1  0  0  0
  3 28  1  0  0  0
  3 29  1  0  0  0
  3 30  1  0  0  0
  4 31  1  0  0  0
  4 32  1  0  0  0
  4 33  1  0  0  0
  5 24  2  0  0  0
  5  6  1  0  0  0
  6  7  2  0  0  0
  6 34  1  0  0  0
  7  8  1  0  0  0
  7 35  1  0  0  0
  8  9  1  0  0  0
  8 23  2  0  0  0
  9 22  1  0  0  0
  9 10  2  0  0  0
 10 11  1  0  0  0
 11 12  2  0  0  0
 12 13  1  0  0  0
 12 22  1  0  0  0
 13 14  1  0  0  0
 14 21  1  0  0  0
 14 15  2  0  0  0
 15 16  1  0  0  0
 15 36  1  0  0  0
 16 17  2  0  0  0
 17 18  1  0  0  0
 17 21  1  0  0  0
 18 19  2  0  0  0
 18 20  1  0  0  0
 23 24  1  0  0  0
 23 37  1  0  0  0
 24 38  1  0  0  0
M  CHG  2  18   1  20  -1
M  END
> <r_i_docking_score>
-5.37688100708328

$$$$
ligprep_5.maegz:321
                    3D
 Schrodinger Suite 2020-4.
 35 37  0  0  1  0            999 V2000
    4.4608   -3.7198   24.1455 C   0  0  0  0  0  0
    5.6263   -3.0116   23.7560 O   0  0  0  0  0  0
    5.9349   -2.8401   22.4522 C   0  0  0  0  0  0
    5.2604   -3.2536   21.5081 O   0  0  0  0  0  0
    7.1893   -2.0989   22.2962 C   0  0  0  0  0  0
    7.5428   -1.2531   21.2258 C   0  0  0  0  0  0
    6.7677   -0.8507   19.9849 C   0  0  0  0  0  0
    8.7456   -0.7585   21.3930 N   0  0  0  0  0  0
    9.2132   -1.2339   22.5593 N   0  0  0  0  0  0
   10.5538   -0.9763   22.9940 C   0  0  0  0  0  0
   11.2465   -1.8737   23.4772 O   0  0  0  0  0  0
   11.0230    0.3927   22.8924 C   0  0  0  0  0  0
   10.2901    1.5700   22.7073 C   0  0  0  0  0  0
   11.0843    2.7215   22.7183 C   0  0  0  0  0  0
   12.4287    2.4420   22.9017 C   0  0  0  0  0  0
   12.7181    0.7470   23.1070 S   0  0  0  0  0  0
    8.2868   -2.0668   23.1684 C   0  0  0  0  0  0
    8.4728   -2.7202   24.4726 C   0  0  0  0  0  0
    8.3724   -4.4520   24.6670 S   0  0  0  0  0  0
    8.6390   -4.3674   26.3454 N   0  0  0  0  0  0
    8.7692   -3.0434   26.7074 N   0  0  0  0  0  0
    8.6920   -2.1650   25.7299 C   0  0  0  0  0  0
    8.8359   -0.7080   26.1167 C   0  0  0  0  0  0
    4.4776   -3.8898   25.2219 H   0  0  0  0  0  0
    3.5687   -3.1431   23.9079 H   0  0  0  0  0  0
    4.3963   -4.6905   23.6512 H   0  0  0  0  0  0
    5.9280   -1.5113   19.7713 H   0  0  0  0  0  0
    6.3577    0.1552   20.0825 H   0  0  0  0  0  0
    7.3958   -0.8537   19.0917 H   0  0  0  0  0  0
    9.2173    1.6051   22.5824 H   0  0  0  0  0  0
   10.6912    3.7203   22.5980 H   0  0  0  0  0  0
   13.2507    3.1417   22.9411 H   0  0  0  0  0  0
    9.8592   -0.4624   26.4031 H   0  0  0  0  0  0
    8.5697   -0.0392   25.2985 H   0  0  0  0  0  0
    8.1975   -0.4397   26.9586 H   0  0  0  0  0  0
  1  2  1  0  0  0
  1 24  1  0  0  0
  1 25  1  0  0  0
  1 26  1  0  0  0
  2  3  1  0  0  0
  3  4  2  0  0  0
  3  5  1  0  0  0
  5 17  2  0  0  0
  5  6  1  0  0  0
  6  7  1  0  0  0
  6  8  2  0  0  0
  7 27  1  0  0  0
  7 28  1  0  0  0
  7 29  1  0  0  0
  8  9  1  0  0  0
  9 10  1  0  0  0
  9 17  1  0  0  0
 10 11  2  0  0  0
 10 12  1  0  0  0
 12 16  1  0  0  0
 12 13  2  0  0  0
 13 14  1  0  0  0
 13 30  1  0  0  0
 14 15  2  0  0  0
 14 31  1  0  0  0
 15 16  1  0  0  0
 15 32  1  0  0  0
 17 18  1  0  0  0
 18 22  2  0  0  0
 18 19  1  0  0  0
 19 20  1  0  0  0
 20 21  2  0  0  0
 21 22  1  0  0  0
 22 23  1  0  0  0
 23 33  1  0  0  0
 23 34  1  0  0  0
 23 35  1  0  0  0
M  END
> <r_i_docking_score>
-6.03337397423033

$$$$
ligprep_5.maegz:322
                    3D
 Schrodinger Suite 2020-4.
 26 28  0  0  1  0            999 V2000
    5.1702   -0.0521   19.9081 O   0  0  0  0  0  0
    6.3911    0.0225   19.9761 N   0  3  0  0  0  0
    7.0904    0.7446   19.2711 O   0  5  0  0  0  0
    7.0423   -0.7943   20.9476 C   0  0  0  0  0  0
    6.4907   -1.6539   21.8981 C   0  0  0  0  0  0
    7.3436   -2.3121   22.6624 N   0  0  0  0  0  0
    8.5907   -2.0077   22.3977 C   0  0  0  0  0  0
    9.9781   -2.7325   23.2212 S   0  0  0  0  0  0
   11.2340   -1.5448   22.8970 C   0  0  0  0  0  0
   12.3958   -1.6947   22.3097 N   0  0  0  0  0  0
   12.9786   -0.4270   22.3079 N   0  0  0  0  0  0
   12.1080    0.3818   22.8698 C   0  0  0  0  0  0
   12.1563    1.8653   23.0282 C   0  0  0  0  0  0
   13.1660    2.6204   22.4205 C   0  0  0  0  0  0
   13.1755    4.0066   22.5564 C   0  0  0  0  0  0
   12.1839    4.6376   23.3029 C   0  0  0  0  0  0
   12.2258    6.3473   23.5091 Cl  0  0  0  0  0  0
   11.1696    3.8965   23.9033 C   0  0  0  0  0  0
   11.1567    2.5122   23.7654 C   0  0  0  0  0  0
   11.0008   -0.2730   23.2961 O   0  0  0  0  0  0
    8.7698   -0.8526   21.1096 S   0  0  0  0  0  0
    5.4307   -1.8057   22.0425 H   0  0  0  0  0  0
   13.9436    2.1387   21.8438 H   0  0  0  0  0  0
   13.9604    4.5878   22.0958 H   0  0  0  0  0  0
   10.3985    4.3923   24.4749 H   0  0  0  0  0  0
   10.3631    1.9469   24.2338 H   0  0  0  0  0  0
  1  2  2  0  0  0
  2  3  1  0  0  0
  2  4  1  0  0  0
  4 21  1  0  0  0
  4  5  2  0  0  0
  5  6  1  0  0  0
  5 22  1  0  0  0
  6  7  2  0  0  0
  7  8  1  0  0  0
  7 21  1  0  0  0
  8  9  1  0  0  0
  9 20  1  0  0  0
  9 10  2  0  0  0
 10 11  1  0  0  0
 11 12  2  0  0  0
 12 13  1  0  0  0
 12 20  1  0  0  0
 13 19  2  0  0  0
 13 14  1  0  0  0
 14 15  2  0  0  0
 14 23  1  0  0  0
 15 16  1  0  0  0
 15 24  1  0  0  0
 16 17  1  0  0  0
 16 18  2  0  0  0
 18 19  1  0  0  0
 18 25  1  0  0  0
 19 26  1  0  0  0
M  CHG  2   2   1   3  -1
M  END
> <r_i_docking_score>
-5.81238655116649

$$$$
ligprep_5.maegz:323
                    3D
 Schrodinger Suite 2020-4.
 40 42  0  0  1  0            999 V2000
    8.9146   -1.8726   24.1992 O   0  0  0  0  0  0
    9.1225   -2.1892   23.0274 C   0  0  0  0  0  0
    8.4734   -3.1616   22.3622 N   0  0  0  0  0  0
    7.3519   -3.9067   22.7567 C   0  0  0  0  0  0
    7.1569   -5.1291   22.1093 C   0  0  0  0  0  0
    6.0456   -5.9136   22.4081 C   0  0  0  0  0  0
    5.1180   -5.4811   23.3537 C   0  0  0  0  0  0
    5.2902   -4.2546   24.0079 C   0  0  0  0  0  0
    4.2618   -3.7785   25.0334 C   0  0  0  0  0  0
    3.0382   -4.2117   24.7237 F   0  0  0  0  0  0
    4.2200   -2.4471   25.1066 F   0  0  0  0  0  0
    4.5907   -4.2581   26.2322 F   0  0  0  0  0  0
    6.4114   -3.4698   23.7033 C   0  0  0  0  0  0
   10.0292   -1.6035   22.2225 N   0  0  0  0  0  0
   10.8382   -0.4937   22.5231 C   0  0  0  0  0  0
   12.2077   -0.6865   22.3092 C   0  0  0  0  0  0
   13.1146    0.3460   22.5347 C   0  0  0  0  0  0
   12.6556    1.5920   22.9471 C   0  0  0  0  0  0
   11.2919    1.8062   23.1392 C   0  0  0  0  0  0
   10.3598    0.7782   22.9324 C   0  0  0  0  0  0
    8.6066    1.0782   23.1769 S   0  0  0  0  0  0
    8.3528    2.8091   22.9560 C   0  0  0  0  0  0
    7.7527    3.3184   21.9081 N   0  0  0  0  0  0
    7.5696    4.6209   22.0145 C   0  0  0  0  0  0
    8.0548    5.2193   23.1781 C   0  0  0  0  0  0
    8.0435    6.5976   23.5437 N   0  3  0  0  0  0
    7.4500    7.3731   22.8025 O   0  0  0  0  0  0
    8.6337    6.9260   24.5680 O   0  5  0  0  0  0
    8.7109    3.9688   24.2018 S   0  0  0  0  0  0
    8.9071   -3.4775   21.5088 H   0  0  0  0  0  0
    7.8678   -5.4806   21.3744 H   0  0  0  0  0  0
    5.9026   -6.8577   21.9063 H   0  0  0  0  0  0
    4.2636   -6.1053   23.5744 H   0  0  0  0  0  0
    6.5370   -2.5159   24.1945 H   0  0  0  0  0  0
   10.3135   -2.1252   21.4062 H   0  0  0  0  0  0
   12.5784   -1.6453   21.9744 H   0  0  0  0  0  0
   14.1701    0.1857   22.3736 H   0  0  0  0  0  0
   13.3582    2.3973   23.1080 H   0  0  0  0  0  0
   10.9849    2.7892   23.4489 H   0  0  0  0  0  0
    7.0829    5.1474   21.2012 H   0  0  0  0  0  0
  1  2  2  0  0  0
  2  3  1  0  0  0
  2 14  1  0  0  0
  3  4  1  0  0  0
  3 30  1  0  0  0
  4 13  2  0  0  0
  4  5  1  0  0  0
  5  6  2  0  0  0
  5 31  1  0  0  0
  6  7  1  0  0  0
  6 32  1  0  0  0
  7  8  2  0  0  0
  7 33  1  0  0  0
  8  9  1  0  0  0
  8 13  1  0  0  0
  9 10  1  0  0  0
  9 11  1  0  0  0
  9 12  1  0  0  0
 13 34  1  0  0  0
 14 15  1  0  0  0
 14 35  1  0  0  0
 15 20  2  0  0  0
 15 16  1  0  0  0
 16 17  2  0  0  0
 16 36  1  0  0  0
 17 18  1  0  0  0
 17 37  1  0  0  0
 18 19  2  0  0  0
 18 38  1  0  0  0
 19 20  1  0  0  0
 19 39  1  0  0  0
 20 21  1  0  0  0
 21 22  1  0  0  0
 22 29  1  0  0  0
 22 23  2  0  0  0
 23 24  1  0  0  0
 24 25  2  0  0  0
 24 40  1  0  0  0
 25 26  1  0  0  0
 25 29  1  0  0  0
 26 27  2  0  0  0
 26 28  1  0  0  0
M  CHG  2  26   1  28  -1
M  END
> <r_i_docking_score>
-5.33970622506005

$$$$
ligprep_5.maegz:324
                    3D
 Schrodinger Suite 2020-4.
 42 45  0  0  1  0            999 V2000
    9.0512   -4.4799   26.9881 C   0  0  0  0  0  0
    8.3014   -4.2651   25.6885 C   0  0  0  0  0  0
    8.2708   -5.2520   24.7072 C   0  0  0  0  0  0
    7.5678   -5.0145   23.5208 C   0  0  0  0  0  0
    7.5348   -6.1133   22.4598 C   0  0  0  0  0  0
    6.9198   -3.7708   23.3424 C   0  0  0  0  0  0
    6.1672   -3.4861   22.1157 C   0  0  0  0  0  0
    5.5709   -3.2656   21.1492 N   0  0  0  0  0  0
    7.0232   -2.8175   24.3812 C   0  0  0  0  0  0
    6.3372   -1.1818   24.2549 S   0  0  0  0  0  0
    7.5461   -0.3901   23.2362 C   0  0  0  0  0  0
    7.1442    0.0836   22.0267 N   0  0  0  0  0  0
    8.0870    0.6688   21.2410 C   0  0  0  0  0  0
    9.4089    0.8487   21.5154 N   0  0  0  0  0  0
    9.7576    0.3796   22.7216 C   0  0  0  0  0  0
    8.8856   -0.2457   23.6420 C   0  0  0  0  0  0
    9.5759   -0.5628   24.7757 N   0  0  0  0  0  0
   10.8668   -0.1057   24.6064 N   0  0  0  0  0  0
   10.9804    0.4253   23.3697 N   0  0  0  0  0  0
   12.2082    1.1029   22.9756 C   0  0  0  0  0  0
   12.1589    2.6330   23.0318 C   0  0  0  0  0  0
   13.1412    3.3573   22.3500 C   0  0  0  0  0  0
   13.1338    4.7497   22.3834 C   0  0  0  0  0  0
   12.1439    5.4182   23.1009 C   0  0  0  0  0  0
   11.1616    4.7092   23.7860 C   0  0  0  0  0  0
   11.1696    3.3173   23.7547 C   0  0  0  0  0  0
    7.6841   -3.0692   25.5406 N   0  0  0  0  0  0
    9.7987   -5.2684   26.8934 H   0  0  0  0  0  0
    9.5677   -3.5716   27.2822 H   0  0  0  0  0  0
    8.3603   -4.7563   27.7854 H   0  0  0  0  0  0
    8.8027   -6.1793   24.8639 H   0  0  0  0  0  0
    8.0915   -7.0028   22.7546 H   0  0  0  0  0  0
    6.5054   -6.4110   22.2560 H   0  0  0  0  0  0
    7.9622   -5.7478   21.5255 H   0  0  0  0  0  0
    7.7434    1.0412   20.2868 H   0  0  0  0  0  0
   13.0325    0.7391   23.5949 H   0  0  0  0  0  0
   12.4179    0.7920   21.9506 H   0  0  0  0  0  0
   13.9129    2.8399   21.7999 H   0  0  0  0  0  0
   13.8934    5.3082   21.8565 H   0  0  0  0  0  0
   12.1355    6.4973   23.1239 H   0  0  0  0  0  0
   10.3941    5.2349   24.3372 H   0  0  0  0  0  0
   10.4074    2.7781   24.2976 H   0  0  0  0  0  0
  1  2  1  0  0  0
  1 28  1  0  0  0
  1 29  1  0  0  0
  1 30  1  0  0  0
  2 27  2  0  0  0
  2  3  1  0  0  0
  3  4  2  0  0  0
  3 31  1  0  0  0
  4  5  1  0  0  0
  4  6  1  0  0  0
  5 32  1  0  0  0
  5 33  1  0  0  0
  5 34  1  0  0  0
  6  7  1  0  0  0
  6  9  2  0  0  0
  7  8  3  0  0  0
  9 10  1  0  0  0
  9 27  1  0  0  0
 10 11  1  0  0  0
 11 16  2  0  0  0
 11 12  1  0  0  0
 12 13  2  0  0  0
 13 14  1  0  0  0
 13 35  1  0  0  0
 14 15  2  0  0  0
 15 19  1  0  0  0
 15 16  1  0  0  0
 16 17  1  0  0  0
 17 18  2  0  0  0
 18 19  1  0  0  0
 19 20  1  0  0  0
 20 21  1  0  0  0
 20 36  1  0  0  0
 20 37  1  0  0  0
 21 26  2  0  0  0
 21 22  1  0  0  0
 22 23  2  0  0  0
 22 38  1  0  0  0
 23 24  1  0  0  0
 23 39  1  0  0  0
 24 25  2  0  0  0
 24 40  1  0  0  0
 25 26  1  0  0  0
 25 41  1  0  0  0
 26 42  1  0  0  0
M  END
> <r_i_docking_score>
-6.93107360225193

$$$$
ligprep_5.maegz:325
                    3D
 Schrodinger Suite 2020-4.
 46 48  0  0  1  0            999 V2000
    1.7395    5.1936   19.0331 C   0  0  0  0  0  0
    1.7081    3.6615   19.1294 C   0  0  0  0  0  0
    2.8785    3.1519   19.7607 O   0  0  0  0  0  0
    3.0407    3.1830   21.1116 C   0  0  0  0  0  0
    2.1548    3.5341   21.8969 O   0  0  0  0  0  0
    4.4077    2.7474   21.5546 C   0  0  0  0  0  0
    4.7293    2.7468   22.9187 C   0  0  0  0  0  0
    5.9942    2.3529   23.3493 C   0  0  0  0  0  0
    6.9624    1.9625   22.4238 C   0  0  0  0  0  0
    8.2075    1.5694   22.9493 N   0  0  0  0  0  0
    9.3668    1.3304   22.3003 C   0  0  0  0  0  0
    9.5578    1.5480   21.1081 O   0  0  0  0  0  0
   10.5223    0.7304   23.1267 C   0  0  0  0  0  0
   10.2095   -0.5253   24.0055 C   0  0  1  0  0  0
    9.3140   -0.1360   25.5081 S   0  0  0  0  0  0
    8.0033   -1.3020   25.1087 C   0  0  0  0  0  0
    7.0388   -1.4713   25.8548 O   0  0  0  0  0  0
    8.2610   -1.9157   23.9276 N   0  0  0  0  0  0
    7.3398   -2.8557   23.3883 C   0  0  0  0  0  0
    6.0091   -2.4884   23.1343 C   0  0  0  0  0  0
    5.1174   -3.4263   22.6220 C   0  0  0  0  0  0
    5.5485   -4.7243   22.3450 C   0  0  0  0  0  0
    6.8658   -5.0987   22.5899 C   0  0  0  0  0  0
    7.7542   -4.1662   23.1149 C   0  0  0  0  0  0
    9.4102   -1.6070   23.2739 C   0  0  0  0  0  0
    9.7996   -2.0832   22.2083 O   0  0  0  0  0  0
    6.6415    1.9446   21.0602 C   0  0  0  0  0  0
    5.3810    2.3420   20.6316 C   0  0  0  0  0  0
    0.8800    5.5706   18.4808 H   0  0  0  0  0  0
    2.6391    5.5287   18.5158 H   0  0  0  0  0  0
    1.7348    5.6563   20.0200 H   0  0  0  0  0  0
    0.8080    3.3204   19.6470 H   0  0  0  0  0  0
    1.6626    3.2431   18.1240 H   0  0  0  0  0  0
    4.0006    3.0473   23.6585 H   0  0  0  0  0  0
    6.2139    2.3580   24.4066 H   0  0  0  0  0  0
    8.2292    1.4677   23.9517 H   0  0  0  0  0  0
   11.3130    0.4575   22.4253 H   0  0  0  0  0  0
   10.9478    1.5256   23.7405 H   0  0  0  0  0  0
   11.1493   -0.9839   24.3174 H   0  0  0  0  0  0
    5.6650   -1.4816   23.3338 H   0  0  0  0  0  0
    4.0915   -3.1455   22.4399 H   0  0  0  0  0  0
    4.8549   -5.4508   21.9433 H   0  0  0  0  0  0
    7.1979   -6.1057   22.3780 H   0  0  0  0  0  0
    8.7712   -4.4551   23.3124 H   0  0  0  0  0  0
    7.3421    1.6244   20.3071 H   0  0  0  0  0  0
    5.1752    2.3327   19.5692 H   0  0  0  0  0  0
  1  2  1  0  0  0
  1 29  1  0  0  0
  1 30  1  0  0  0
  1 31  1  0  0  0
  2  3  1  0  0  0
  2 32  1  0  0  0
  2 33  1  0  0  0
  3  4  1  0  0  0
  4  5  2  0  0  0
  4  6  1  0  0  0
  6 28  2  0  0  0
  6  7  1  0  0  0
  7  8  2  0  0  0
  7 34  1  0  0  0
  8  9  1  0  0  0
  8 35  1  0  0  0
  9 10  1  0  0  0
  9 27  2  0  0  0
 10 11  1  0  0  0
 10 36  1  0  0  0
 11 12  2  0  0  0
 11 13  1  0  0  0
 13 14  1  0  0  0
 13 37  1  0  0  0
 13 38  1  0  0  0
 14 25  1  0  0  0
 14 15  1  0  0  0
 14 39  1  0  0  0
 15 16  1  0  0  0
 16 17  2  0  0  0
 16 18  1  0  0  0
 18 19  1  0  0  0
 18 25  1  0  0  0
 19 24  2  0  0  0
 19 20  1  0  0  0
 20 21  2  0  0  0
 20 40  1  0  0  0
 21 22  1  0  0  0
 21 41  1  0  0  0
 22 23  2  0  0  0
 22 42  1  0  0  0
 23 24  1  0  0  0
 23 43  1  0  0  0
 24 44  1  0  0  0
 25 26  2  0  0  0
 27 28  1  0  0  0
 27 45  1  0  0  0
 28 46  1  0  0  0
M  END
> <r_i_docking_score>
-3.55003062563404

$$$$
ligprep_5.maegz:326
                    3D
 Schrodinger Suite 2020-4.
 40 42  0  0  1  0            999 V2000
    6.3699   -0.8518   18.3299 C   0  0  0  0  0  0
    6.1062    0.2804   19.3114 C   0  0  0  0  0  0
    5.2032    1.2857   18.9489 C   0  0  0  0  0  0
    4.9375    2.3459   19.8122 C   0  0  0  0  0  0
    5.5704    2.4065   21.0509 C   0  0  0  0  0  0
    6.4789    1.4178   21.4209 C   0  0  0  0  0  0
    6.7696    0.3507   20.5522 C   0  0  0  0  0  0
    7.6818   -0.6734   20.8808 N   0  0  0  0  0  0
    8.7231   -0.6341   21.7363 C   0  0  0  0  0  0
    9.0884    0.3631   22.3591 O   0  0  0  0  0  0
    9.5135   -1.9413   21.8979 C   0  0  0  0  0  0
    9.1089   -2.8381   23.1089 C   0  0  1  0  0  0
    9.1179   -2.0382   24.7115 S   0  0  0  0  0  0
    7.5329   -2.7752   25.1536 C   0  0  0  0  0  0
    7.0386   -2.6214   26.2690 O   0  0  0  0  0  0
    7.0211   -3.4672   24.1033 N   0  0  0  0  0  0
    5.7491   -4.1149   24.1871 C   0  0  0  0  0  0
    5.6049   -5.4580   23.7953 C   0  0  0  0  0  0
    4.3629   -6.0816   23.8452 C   0  0  0  0  0  0
    3.2551   -5.3756   24.3040 C   0  0  0  0  0  0
    3.3793   -4.0500   24.7085 C   0  0  0  0  0  0
    4.6184   -3.4179   24.6439 C   0  0  0  0  0  0
    7.7478   -3.5206   22.9585 C   0  0  0  0  0  0
    7.4041   -4.0581   21.9068 O   0  0  0  0  0  0
    7.4437   -0.9967   18.2108 H   0  0  0  0  0  0
    5.9470   -1.7851   18.6972 H   0  0  0  0  0  0
    5.9684   -0.6391   17.3394 H   0  0  0  0  0  0
    4.7066    1.2518   17.9897 H   0  0  0  0  0  0
    4.2531    3.1280   19.5158 H   0  0  0  0  0  0
    5.3623    3.2311   21.7188 H   0  0  0  0  0  0
    6.9374    1.4921   22.3956 H   0  0  0  0  0  0
    7.5796   -1.5199   20.3397 H   0  0  0  0  0  0
    9.4734   -2.5102   20.9698 H   0  0  0  0  0  0
   10.5653   -1.6712   21.9969 H   0  0  0  0  0  0
    9.8281   -3.6507   23.1892 H   0  0  0  0  0  0
    6.4558   -6.0214   23.4398 H   0  0  0  0  0  0
    4.2604   -7.1098   23.5289 H   0  0  0  0  0  0
    2.2909   -5.8607   24.3467 H   0  0  0  0  0  0
    2.5156   -3.5074   25.0649 H   0  0  0  0  0  0
    4.6940   -2.3827   24.9457 H   0  0  0  0  0  0
  1  2  1  0  0  0
  1 25  1  0  0  0
  1 26  1  0  0  0
  1 27  1  0  0  0
  2  7  2  0  0  0
  2  3  1  0  0  0
  3  4  2  0  0  0
  3 28  1  0  0  0
  4  5  1  0  0  0
  4 29  1  0  0  0
  5  6  2  0  0  0
  5 30  1  0  0  0
  6  7  1  0  0  0
  6 31  1  0  0  0
  7  8  1  0  0  0
  8  9  1  0  0  0
  8 32  1  0  0  0
  9 10  2  0  0  0
  9 11  1  0  0  0
 11 12  1  0  0  0
 11 33  1  0  0  0
 11 34  1  0  0  0
 12 23  1  0  0  0
 12 13  1  0  0  0
 12 35  1  0  0  0
 13 14  1  0  0  0
 14 15  2  0  0  0
 14 16  1  0  0  0
 16 17  1  0  0  0
 16 23  1  0  0  0
 17 22  2  0  0  0
 17 18  1  0  0  0
 18 19  2  0  0  0
 18 36  1  0  0  0
 19 20  1  0  0  0
 19 37  1  0  0  0
 20 21  2  0  0  0
 20 38  1  0  0  0
 21 22  1  0  0  0
 21 39  1  0  0  0
 22 40  1  0  0  0
 23 24  2  0  0  0
M  END
> <r_i_docking_score>
-4.98241388012393

$$$$
ligprep_5.maegz:327
                    3D
 Schrodinger Suite 2020-4.
 36 40  0  0  1  0            999 V2000
    5.4872    1.9442   19.6352 C   0  0  0  0  0  0
    5.4401    0.7576   18.9082 C   0  0  0  0  0  0
    5.8399   -0.4360   19.5045 C   0  0  0  0  0  0
    6.2989   -0.4568   20.8287 C   0  0  0  0  0  0
    6.7108   -1.7375   21.4734 C   0  0  0  0  0  0
    7.8131   -1.7872   22.3381 C   0  0  0  0  0  0
    8.1918   -3.0110   22.8925 C   0  0  0  0  0  0
    9.5787   -3.2079   23.9954 S   0  0  0  0  0  0
   10.6726   -1.9394   23.4469 C   0  0  0  0  0  0
   11.7469   -2.0504   22.7062 N   0  0  0  0  0  0
   12.2374   -0.7570   22.5499 N   0  0  0  0  0  0
   11.4065    0.0278   23.1950 C   0  0  0  0  0  0
   11.4177    1.4808   23.2873 C   0  0  0  0  0  0
   10.4116    2.3055   23.7835 C   0  0  0  0  0  0
   10.7026    3.6693   23.6705 C   0  0  0  0  0  0
   11.9457    3.9045   23.1039 C   0  0  0  0  0  0
   12.7630    2.4264   22.7079 S   0  0  0  0  0  0
   10.4034   -0.6582   23.8007 O   0  0  0  0  0  0
    7.4371   -4.1096   22.5584 N   0  0  0  0  0  0
    7.5693   -5.4015   22.9467 N   0  0  0  0  0  0
    6.5893   -5.9899   22.2842 C   0  0  0  0  0  0
    5.8161   -5.2446   21.5136 N   0  0  0  0  0  0
    6.3491   -4.0119   21.6875 C   0  0  0  0  0  0
    5.9707   -2.8451   21.1495 N   0  0  0  0  0  0
    6.3678    0.7533   21.5383 C   0  0  0  0  0  0
    5.9564    1.9471   20.9463 C   0  0  0  0  0  0
    5.1667    2.8710   19.1790 H   0  0  0  0  0  0
    5.0831    0.7661   17.8888 H   0  0  0  0  0  0
    5.7904   -1.3488   18.9253 H   0  0  0  0  0  0
    8.3645   -0.8866   22.5523 H   0  0  0  0  0  0
    9.4842    1.9291   24.1941 H   0  0  0  0  0  0
   10.0231    4.4506   23.9829 H   0  0  0  0  0  0
   12.4072    4.8609   22.8937 H   0  0  0  0  0  0
    6.4304   -7.0592   22.3644 H   0  0  0  0  0  0
    6.7117    0.7726   22.5625 H   0  0  0  0  0  0
    5.9927    2.8737   21.4996 H   0  0  0  0  0  0
  1 26  2  0  0  0
  1  2  1  0  0  0
  1 27  1  0  0  0
  2  3  2  0  0  0
  2 28  1  0  0  0
  3  4  1  0  0  0
  3 29  1  0  0  0
  4  5  1  0  0  0
  4 25  2  0  0  0
  5 24  2  0  0  0
  5  6  1  0  0  0
  6  7  2  0  0  0
  6 30  1  0  0  0
  7  8  1  0  0  0
  7 19  1  0  0  0
  8  9  1  0  0  0
  9 18  1  0  0  0
  9 10  2  0  0  0
 10 11  1  0  0  0
 11 12  2  0  0  0
 12 13  1  0  0  0
 12 18  1  0  0  0
 13 17  1  0  0  0
 13 14  2  0  0  0
 14 15  1  0  0  0
 14 31  1  0  0  0
 15 16  2  0  0  0
 15 32  1  0  0  0
 16 17  1  0  0  0
 16 33  1  0  0  0
 19 23  1  0  0  0
 19 20  1  0  0  0
 20 21  2  0  0  0
 21 22  1  0  0  0
 21 34  1  0  0  0
 22 23  2  0  0  0
 23 24  1  0  0  0
 25 26  1  0  0  0
 25 35  1  0  0  0
 26 36  1  0  0  0
M  END
> <r_i_docking_score>
-6.59209999885412

$$$$
ligprep_5.maegz:328
                    3D
 Schrodinger Suite 2020-4.
 49 52  0  0  1  0            999 V2000
   11.8760    3.0298   22.7876 C   0  0  0  0  0  0
   11.8669    1.5679   22.7100 N   0  0  0  0  0  0
   13.1735    0.9217   22.5676 C   0  0  0  0  0  0
   10.6789    0.8909   22.3080 C   0  0  0  0  0  0
   10.7127   -0.4546   21.9078 C   0  0  0  0  0  0
    9.5557   -1.1184   21.5089 C   0  0  0  0  0  0
    8.3257   -0.4646   21.5673 C   0  0  0  0  0  0
    7.1460   -1.1702   21.2660 N   0  0  0  0  0  0
    6.7004   -1.1598   19.8623 C   0  0  0  0  0  0
    5.9208    0.0941   19.5167 C   0  0  0  0  0  0
    5.9675    0.9614   18.4423 C   0  0  0  0  0  0
    5.0102    1.9473   18.7075 C   0  0  0  0  0  0
    4.3752    1.7404   19.8316 N   0  0  0  0  0  0
    4.9308    0.6260   20.3078 N   0  0  0  0  0  0
    6.4668   -1.8910   22.2071 C   0  0  0  0  0  0
    5.5695   -2.6848   21.9090 O   0  0  0  0  0  0
    6.7416   -1.6746   23.7105 C   0  0  0  0  0  0
    7.6365   -2.6515   24.3217 N   0  0  0  0  0  0
    8.9427   -2.6685   23.9960 N   0  0  0  0  0  0
    9.5695   -3.6550   24.7127 N   0  0  0  0  0  0
    8.6311   -4.2279   25.5144 C   0  0  0  0  0  0
    8.7557   -5.2517   26.4599 C   0  0  0  0  0  0
    7.6056   -5.6517   27.1417 C   0  0  0  0  0  0
    6.3699   -5.0525   26.8946 C   0  0  0  0  0  0
    6.2187   -4.0227   25.9611 C   0  0  0  0  0  0
    7.3728   -3.6196   25.2784 C   0  0  0  0  0  0
    8.2688    0.8819   21.9274 C   0  0  0  0  0  0
    9.4361    1.5487   22.2923 C   0  0  0  0  0  0
   11.1245    3.3952   23.4875 H   0  0  0  0  0  0
   12.8432    3.4180   23.1102 H   0  0  0  0  0  0
   11.6552    3.4617   21.8109 H   0  0  0  0  0  0
   13.4311    0.7982   21.5144 H   0  0  0  0  0  0
   13.9643    1.5074   23.0363 H   0  0  0  0  0  0
   13.1813   -0.0661   23.0292 H   0  0  0  0  0  0
   11.6342   -1.0131   21.8740 H   0  0  0  0  0  0
    9.6139   -2.1539   21.2037 H   0  0  0  0  0  0
    7.5811   -1.2421   19.2247 H   0  0  0  0  0  0
    6.1093   -2.0460   19.6285 H   0  0  0  0  0  0
    6.6140    0.8955   17.5783 H   0  0  0  0  0  0
    4.7705    2.7943   18.0771 H   0  0  0  0  0  0
    4.6026    0.2186   21.1782 H   0  0  0  0  0  0
    5.7923   -1.6840   24.2463 H   0  0  0  0  0  0
    7.1547   -0.6836   23.8970 H   0  0  0  0  0  0
    9.7099   -5.7206   26.6505 H   0  0  0  0  0  0
    7.6689   -6.4481   27.8705 H   0  0  0  0  0  0
    5.5042   -5.3982   27.4416 H   0  0  0  0  0  0
    5.2558   -3.5673   25.7848 H   0  0  0  0  0  0
    7.3251    1.4081   21.9483 H   0  0  0  0  0  0
    9.3477    2.5857   22.5740 H   0  0  0  0  0  0
  1  2  1  0  0  0
  1 29  1  0  0  0
  1 30  1  0  0  0
  1 31  1  0  0  0
  2  3  1  0  0  0
  2  4  1  0  0  0
  3 32  1  0  0  0
  3 33  1  0  0  0
  3 34  1  0  0  0
  4 28  2  0  0  0
  4  5  1  0  0  0
  5  6  2  0  0  0
  5 35  1  0  0  0
  6  7  1  0  0  0
  6 36  1  0  0  0
  7  8  1  0  0  0
  7 27  2  0  0  0
  8  9  1  0  0  0
  8 15  1  0  0  0
  9 10  1  0  0  0
  9 37  1  0  0  0
  9 38  1  0  0  0
 10 14  1  0  0  0
 10 11  2  0  0  0
 11 12  1  0  0  0
 11 39  1  0  0  0
 12 13  2  0  0  0
 12 40  1  0  0  0
 13 14  1  0  0  0
 14 41  1  0  0  0
 15 16  2  0  0  0
 15 17  1  0  0  0
 17 18  1  0  0  0
 17 42  1  0  0  0
 17 43  1  0  0  0
 18 26  1  0  0  0
 18 19  1  0  0  0
 19 20  2  0  0  0
 20 21  1  0  0  0
 21 26  2  0  0  0
 21 22  1  0  0  0
 22 23  2  0  0  0
 22 44  1  0  0  0
 23 24  1  0  0  0
 23 45  1  0  0  0
 24 25  2  0  0  0
 24 46  1  0  0  0
 25 26  1  0  0  0
 25 47  1  0  0  0
 27 28  1  0  0  0
 27 48  1  0  0  0
 28 49  1  0  0  0
M  END
> <r_i_docking_score>
-5.42898957191989

$$$$
ligprep_5.maegz:329
                    3D
 Schrodinger Suite 2020-4.
 43 45  0  0  1  0            999 V2000
    4.3753    2.5296   18.9749 C   0  0  0  0  0  0
    5.1710    1.2532   19.0584 C   0  0  0  0  0  0
    5.5697    0.6207   17.9773 N   0  0  0  0  0  0
    6.2244   -0.4923   18.4964 O   0  0  0  0  0  0
    6.1488   -0.3456   19.8411 C   0  0  0  0  0  0
    6.7653   -1.4289   20.6945 C   0  0  0  0  0  0
    6.7420   -1.0735   22.0790 O   0  0  0  0  0  0
    7.9033   -1.0157   22.8275 C   0  0  0  0  0  0
    7.7300   -0.9521   24.2122 C   0  0  0  0  0  0
    8.8267   -0.8853   25.0697 C   0  0  0  0  0  0
    8.5911   -0.8534   26.7789 Cl  0  0  0  0  0  0
   10.1155   -0.8600   24.5439 C   0  0  0  0  0  0
   10.3161   -0.9378   23.1639 C   0  0  0  0  0  0
   11.7322   -0.9087   22.5899 C   0  0  0  0  0  0
   12.4331    0.4545   22.7080 C   0  0  0  0  0  0
   13.6624    0.4800   22.7078 O   0  0  0  0  0  0
   11.6473    1.5496   22.8049 N   0  0  0  0  0  0
   12.0328    2.8962   22.9108 C   0  0  0  0  0  0
   13.1954    3.4014   22.3083 C   0  0  0  0  0  0
   13.5691    4.7028   22.3876 N   0  0  0  0  0  0
   12.7694    5.5469   23.0831 C   0  0  0  0  0  0
   11.5881    5.1387   23.7016 C   0  0  0  0  0  0
   11.2063    3.7950   23.6108 C   0  0  0  0  0  0
    9.9231    3.3382   24.2941 C   0  0  0  0  0  0
    9.2116   -1.0011   22.3094 C   0  0  0  0  0  0
    5.5250    0.7370   20.2169 N   0  0  0  0  0  0
    4.4588    3.1469   19.8680 H   0  0  0  0  0  0
    4.7689    3.1471   18.1686 H   0  0  0  0  0  0
    3.3303    2.3616   18.7144 H   0  0  0  0  0  0
    7.7512   -1.6529   20.3077 H   0  0  0  0  0  0
    6.2100   -2.3614   20.5978 H   0  0  0  0  0  0
    6.7311   -0.9651   24.6230 H   0  0  0  0  0  0
   10.9634   -0.7883   25.2078 H   0  0  0  0  0  0
   11.7246   -1.1920   21.5351 H   0  0  0  0  0  0
   12.3291   -1.6629   23.1032 H   0  0  0  0  0  0
   10.6563    1.3823   22.8942 H   0  0  0  0  0  0
   13.8578    2.7658   21.7392 H   0  0  0  0  0  0
   13.0994    6.5738   23.1436 H   0  0  0  0  0  0
   10.9829    5.8539   24.2403 H   0  0  0  0  0  0
    9.2002    2.9995   23.5504 H   0  0  0  0  0  0
   10.1274    2.4996   24.9613 H   0  0  0  0  0  0
    9.4683    4.1303   24.8907 H   0  0  0  0  0  0
    9.4088   -1.0180   21.2499 H   0  0  0  0  0  0
  1  2  1  0  0  0
  1 27  1  0  0  0
  1 28  1  0  0  0
  1 29  1  0  0  0
  2 26  1  0  0  0
  2  3  2  0  0  0
  3  4  1  0  0  0
  4  5  1  0  0  0
  5  6  1  0  0  0
  5 26  2  0  0  0
  6  7  1  0  0  0
  6 30  1  0  0  0
  6 31  1  0  0  0
  7  8  1  0  0  0
  8 25  2  0  0  0
  8  9  1  0  0  0
  9 10  2  0  0  0
  9 32  1  0  0  0
 10 11  1  0  0  0
 10 12  1  0  0  0
 12 13  2  0  0  0
 12 33  1  0  0  0
 13 14  1  0  0  0
 13 25  1  0  0  0
 14 15  1  0  0  0
 14 34  1  0  0  0
 14 35  1  0  0  0
 15 16  2  0  0  0
 15 17  1  0  0  0
 17 18  1  0  0  0
 17 36  1  0  0  0
 18 23  2  0  0  0
 18 19  1  0  0  0
 19 20  2  0  0  0
 19 37  1  0  0  0
 20 21  1  0  0  0
 21 22  2  0  0  0
 21 38  1  0  0  0
 22 23  1  0  0  0
 22 39  1  0  0  0
 23 24  1  0  0  0
 24 40  1  0  0  0
 24 41  1  0  0  0
 24 42  1  0  0  0
 25 43  1  0  0  0
M  END
> <r_i_docking_score>
-5.76825525232016

$$$$
ligprep_5.maegz:330
                    3D
 Schrodinger Suite 2020-4.
 56 59  0  0  1  0            999 V2000
    6.4076    0.3585   20.1659 C   0  0  0  0  0  0
    5.4395    1.5138   20.3401 C   0  0  0  0  0  0
    4.4078    1.6445   19.4064 C   0  0  0  0  0  0
    3.4198    2.6057   19.6155 C   0  0  0  0  0  0
    3.3892    3.4052   20.7079 N   0  0  0  0  0  0
    4.4175    3.3062   21.5854 C   0  0  0  0  0  0
    5.4802    2.4061   21.4372 C   0  0  0  0  0  0
    6.4852    2.4728   22.4202 N   0  0  0  0  0  0
    7.8200    2.5215   22.2232 C   0  0  0  0  0  0
    8.3692    2.3468   21.1323 O   0  0  0  0  0  0
    8.6504    2.8870   23.4716 C   0  0  0  0  0  0
   10.1332    2.5515   23.3275 C   0  0  0  0  0  0
   11.0667    3.5312   22.9773 C   0  0  0  0  0  0
   12.3890    3.1756   22.7122 C   0  0  0  0  0  0
   13.5473    4.3891   22.3040 Cl  0  0  0  0  0  0
   12.7719    1.8354   22.7667 C   0  0  0  0  0  0
   11.8581    0.8436   23.1268 C   0  0  0  0  0  0
   12.3099   -0.4638   23.1079 O   0  0  0  0  0  0
   11.4609   -1.5449   23.5240 C   0  0  0  0  0  0
   10.2614   -1.7588   22.6247 C   0  0  0  0  0  0
    9.9695   -1.1461   21.5081 N   0  0  0  0  0  0
    8.7406   -1.6421   21.1109 N   0  0  0  0  0  0
    8.3828   -2.5080   22.0222 C   0  0  0  0  0  0
    7.1209   -3.3469   22.0490 C   0  0  0  0  0  0
    7.3988   -4.8703   22.0074 C   0  0  0  0  0  0
    6.0950   -5.6944   21.9766 C   0  0  0  0  0  0
    5.1479   -5.3218   23.1315 C   0  0  0  0  0  0
    4.8720   -3.8064   23.1798 C   0  0  0  0  0  0
    6.1728   -2.9780   23.2149 C   0  0  0  0  0  0
    9.2982   -2.6318   23.0171 O   0  0  0  0  0  0
   10.5477    1.2252   23.4521 C   0  0  0  0  0  0
    6.7327    0.0038   21.1421 H   0  0  0  0  0  0
    5.9273   -0.4901   19.6778 H   0  0  0  0  0  0
    7.2728    0.6511   19.5699 H   0  0  0  0  0  0
    4.3684    1.0073   18.5345 H   0  0  0  0  0  0
    2.6264    2.7471   18.8966 H   0  0  0  0  0  0
    4.3862    4.0038   22.4084 H   0  0  0  0  0  0
    6.1577    2.7047   23.3441 H   0  0  0  0  0  0
    8.5374    3.9593   23.6375 H   0  0  0  0  0  0
    8.2472    2.3809   24.3497 H   0  0  0  0  0  0
   10.7594    4.5614   22.8708 H   0  0  0  0  0  0
   13.7892    1.5611   22.5271 H   0  0  0  0  0  0
   12.0662   -2.4506   23.5088 H   0  0  0  0  0  0
   11.1732   -1.3993   24.5659 H   0  0  0  0  0  0
    6.5507   -3.1363   21.1419 H   0  0  0  0  0  0
    7.9685   -5.1262   21.1130 H   0  0  0  0  0  0
    7.9694   -5.1724   22.8878 H   0  0  0  0  0  0
    5.5874   -5.5354   21.0239 H   0  0  0  0  0  0
    6.3264   -6.7595   22.0190 H   0  0  0  0  0  0
    4.2115   -5.8728   23.0328 H   0  0  0  0  0  0
    5.5884   -5.6409   24.0772 H   0  0  0  0  0  0
    4.2852   -3.5159   22.3080 H   0  0  0  0  0  0
    4.2574   -3.5687   24.0486 H   0  0  0  0  0  0
    6.6668   -3.1619   24.1708 H   0  0  0  0  0  0
    5.8933   -1.9244   23.1549 H   0  0  0  0  0  0
    9.8099    0.4933   23.7380 H   0  0  0  0  0  0
  1  2  1  0  0  0
  1 32  1  0  0  0
  1 33  1  0  0  0
  1 34  1  0  0  0
  2  7  2  0  0  0
  2  3  1  0  0  0
  3  4  2  0  0  0
  3 35  1  0  0  0
  4  5  1  0  0  0
  4 36  1  0  0  0
  5  6  2  0  0  0
  6  7  1  0  0  0
  6 37  1  0  0  0
  7  8  1  0  0  0
  8  9  1  0  0  0
  8 38  1  0  0  0
  9 10  2  0  0  0
  9 11  1  0  0  0
 11 12  1  0  0  0
 11 39  1  0  0  0
 11 40  1  0  0  0
 12 31  2  0  0  0
 12 13  1  0  0  0
 13 14  2  0  0  0
 13 41  1  0  0  0
 14 15  1  0  0  0
 14 16  1  0  0  0
 16 17  2  0  0  0
 16 42  1  0  0  0
 17 18  1  0  0  0
 17 31  1  0  0  0
 18 19  1  0  0  0
 19 20  1  0  0  0
 19 43  1  0  0  0
 19 44  1  0  0  0
 20 30  1  0  0  0
 20 21  2  0  0  0
 21 22  1  0  0  0
 22 23  2  0  0  0
 23 24  1  0  0  0
 23 30  1  0  0  0
 24 29  1  0  0  0
 24 25  1  0  0  0
 24 45  1  0  0  0
 25 26  1  0  0  0
 25 46  1  0  0  0
 25 47  1  0  0  0
 26 27  1  0  0  0
 26 48  1  0  0  0
 26 49  1  0  0  0
 27 28  1  0  0  0
 27 50  1  0  0  0
 27 51  1  0  0  0
 28 29  1  0  0  0
 28 52  1  0  0  0
 28 53  1  0  0  0
 29 54  1  0  0  0
 29 55  1  0  0  0
 31 56  1  0  0  0
M  END
> <r_i_docking_score>
-5.48055640984042

$$$$
ligprep_5.maegz:331
                    3D
 Schrodinger Suite 2020-4.
 48 51  0  0  1  0            999 V2000
    5.9688    0.4046   18.1722 C   0  0  0  0  0  0
    5.6263    0.8889   19.5113 N   0  0  0  0  0  0
    4.8344    2.1217   19.5672 C   0  0  0  0  0  0
    6.3986    0.4835   20.6363 C   0  0  0  0  0  0
    7.2108   -0.6606   20.5784 C   0  0  0  0  0  0
    7.9785   -1.0647   21.6692 C   0  0  0  0  0  0
    7.9690   -0.3047   22.8408 C   0  0  0  0  0  0
    8.8073   -0.6404   23.9237 N   0  0  0  0  0  0
    8.1544   -1.1342   25.1531 C   0  0  0  0  0  0
    8.4289   -2.6060   25.4413 C   0  0  0  0  0  0
    9.1636   -3.5360   24.7002 C   0  0  0  0  0  0
    9.1705   -5.0706   25.5137 S   0  0  0  0  0  0
    8.1984   -4.3435   26.7412 C   0  0  0  0  0  0
    7.9095   -3.0801   26.5591 N   0  0  0  0  0  0
   10.1183   -0.2543   23.9473 C   0  0  0  0  0  0
   10.7707   -0.1966   24.9931 O   0  0  0  0  0  0
   10.8426    0.0515   22.6193 C   0  0  0  0  0  0
   11.9293    1.0172   22.7081 N   0  0  0  0  0  0
   13.1764    0.6549   22.3520 N   0  0  0  0  0  0
   13.9588    1.7837   22.3079 N   0  0  0  0  0  0
   13.1690    2.8464   22.6370 C   0  0  0  0  0  0
   13.4671    4.2156   22.7080 C   0  0  0  0  0  0
   12.4484    5.0862   23.0958 C   0  0  0  0  0  0
   11.1665    4.6161   23.3835 C   0  0  0  0  0  0
   10.8346    3.2608   23.2954 C   0  0  0  0  0  0
   11.8626    2.3856   22.9248 C   0  0  0  0  0  0
    7.1503    0.8228   22.9305 C   0  0  0  0  0  0
    6.3720    1.2061   21.8407 C   0  0  0  0  0  0
    5.9353   -0.6832   18.1138 H   0  0  0  0  0  0
    5.2941    0.7968   17.4110 H   0  0  0  0  0  0
    6.9793    0.7172   17.9103 H   0  0  0  0  0  0
    5.4871    2.9916   19.6577 H   0  0  0  0  0  0
    4.2196    2.2575   18.6774 H   0  0  0  0  0  0
    4.1678    2.1194   20.4319 H   0  0  0  0  0  0
    7.2638   -1.2533   19.6808 H   0  0  0  0  0  0
    8.6021   -1.9441   21.5860 H   0  0  0  0  0  0
    8.4864   -0.5231   25.9956 H   0  0  0  0  0  0
    7.0796   -0.9608   25.0841 H   0  0  0  0  0  0
    9.6850   -3.3968   23.7649 H   0  0  0  0  0  0
    7.8704   -4.9135   27.5964 H   0  0  0  0  0  0
   10.1734    0.4391   21.8548 H   0  0  0  0  0  0
   11.2362   -0.8935   22.2401 H   0  0  0  0  0  0
   14.4587    4.5794   22.4869 H   0  0  0  0  0  0
   12.6541    6.1447   23.1712 H   0  0  0  0  0  0
   10.4014    5.3241   23.6670 H   0  0  0  0  0  0
    9.8337    2.9135   23.5030 H   0  0  0  0  0  0
    7.1311    1.4168   23.8333 H   0  0  0  0  0  0
    5.7625    2.0902   21.9482 H   0  0  0  0  0  0
  1  2  1  0  0  0
  1 29  1  0  0  0
  1 30  1  0  0  0
  1 31  1  0  0  0
  2  3  1  0  0  0
  2  4  1  0  0  0
  3 32  1  0  0  0
  3 33  1  0  0  0
  3 34  1  0  0  0
  4 28  2  0  0  0
  4  5  1  0  0  0
  5  6  2  0  0  0
  5 35  1  0  0  0
  6  7  1  0  0  0
  6 36  1  0  0  0
  7  8  1  0  0  0
  7 27  2  0  0  0
  8  9  1  0  0  0
  8 15  1  0  0  0
  9 10  1  0  0  0
  9 37  1  0  0  0
  9 38  1  0  0  0
 10 14  1  0  0  0
 10 11  2  0  0  0
 11 12  1  0  0  0
 11 39  1  0  0  0
 12 13  1  0  0  0
 13 14  2  0  0  0
 13 40  1  0  0  0
 15 16  2  0  0  0
 15 17  1  0  0  0
 17 18  1  0  0  0
 17 41  1  0  0  0
 17 42  1  0  0  0
 18 26  1  0  0  0
 18 19  1  0  0  0
 19 20  2  0  0  0
 20 21  1  0  0  0
 21 26  2  0  0  0
 21 22  1  0  0  0
 22 23  2  0  0  0
 22 43  1  0  0  0
 23 24  1  0  0  0
 23 44  1  0  0  0
 24 25  2  0  0  0
 24 45  1  0  0  0
 25 26  1  0  0  0
 25 46  1  0  0  0
 27 28  1  0  0  0
 27 47  1  0  0  0
 28 48  1  0  0  0
M  END
> <r_i_docking_score>
-5.29652660798173

$$$$
ligprep_5.maegz:332
                    3D
 Schrodinger Suite 2020-4.
 50 53  0  0  1  0            999 V2000
    1.9778    4.9125   19.4590 C   0  0  0  0  0  0
    2.5441    3.7040   18.6904 C   0  0  0  0  0  0
    3.3200    2.7301   19.5847 C   0  0  0  0  0  0
    2.8099    2.3530   20.6417 O   0  0  0  0  0  0
    4.5057    2.2903   19.1129 N   0  0  0  0  0  0
    5.4057    1.4167   19.7542 C   0  0  0  0  0  0
    6.1659    0.5602   18.9553 C   0  0  0  0  0  0
    7.0419   -0.3545   19.5436 C   0  0  0  0  0  0
    7.1678   -0.4235   20.9383 C   0  0  0  0  0  0
    8.0250   -1.3918   21.5415 N   0  0  0  0  0  0
    9.4390   -1.4223   21.1114 C   0  0  0  0  0  0
   10.3408   -0.4514   21.8735 C   0  0  0  0  0  0
   11.6186   -0.7022   22.3768 C   0  0  0  0  0  0
   12.2628    0.7364   23.1108 S   0  0  0  0  0  0
   10.7808    1.5252   22.7001 C   0  0  0  0  0  0
    9.9104    0.7881   22.0587 N   0  0  0  0  0  0
    7.5790   -2.2238   22.5357 C   0  0  0  0  0  0
    6.4031   -2.2330   22.9090 O   0  0  0  0  0  0
    8.5662   -3.2204   23.2049 C   0  0  0  0  0  0
    8.1117   -3.8203   24.4604 N   0  0  0  0  0  0
    8.7655   -3.5642   25.6135 N   0  0  0  0  0  0
    8.1220   -4.2239   26.6393 N   0  0  0  0  0  0
    7.0626   -4.8863   26.0948 C   0  0  0  0  0  0
    6.0768   -5.6774   26.7003 C   0  0  0  0  0  0
    5.0992   -6.2426   25.8776 C   0  0  0  0  0  0
    5.1068   -6.0418   24.4952 C   0  0  0  0  0  0
    6.0761   -5.2555   23.8676 C   0  0  0  0  0  0
    7.0434   -4.6728   24.6944 C   0  0  0  0  0  0
    6.4497    0.4841   21.7295 C   0  0  0  0  0  0
    5.5792    1.3992   21.1431 C   0  0  0  0  0  0
    1.4625    5.5885   18.7747 H   0  0  0  0  0  0
    2.7696    5.4930   19.9360 H   0  0  0  0  0  0
    1.2510    4.6085   20.2149 H   0  0  0  0  0  0
    1.7285    3.1554   18.2220 H   0  0  0  0  0  0
    3.1699    4.0572   17.8716 H   0  0  0  0  0  0
    4.7242    2.5496   18.1619 H   0  0  0  0  0  0
    6.0633    0.5783   17.8791 H   0  0  0  0  0  0
    7.5910   -1.0245   18.9009 H   0  0  0  0  0  0
    9.8370   -2.4351   21.1922 H   0  0  0  0  0  0
    9.4899   -1.2532   20.0395 H   0  0  0  0  0  0
   12.1924   -1.6179   22.3369 H   0  0  0  0  0  0
   10.6079    2.5633   22.9400 H   0  0  0  0  0  0
    8.7420   -4.0441   22.5130 H   0  0  0  0  0  0
    9.5289   -2.7418   23.3884 H   0  0  0  0  0  0
    6.0789   -5.8538   27.7660 H   0  0  0  0  0  0
    4.3270   -6.8575   26.3193 H   0  0  0  0  0  0
    4.3399   -6.5083   23.8932 H   0  0  0  0  0  0
    6.0682   -5.0997   22.7985 H   0  0  0  0  0  0
    6.5485    0.4654   22.8051 H   0  0  0  0  0  0
    5.0241    2.0722   21.7803 H   0  0  0  0  0  0
  1  2  1  0  0  0
  1 31  1  0  0  0
  1 32  1  0  0  0
  1 33  1  0  0  0
  2  3  1  0  0  0
  2 34  1  0  0  0
  2 35  1  0  0  0
  3  4  2  0  0  0
  3  5  1  0  0  0
  5  6  1  0  0  0
  5 36  1  0  0  0
  6 30  2  0  0  0
  6  7  1  0  0  0
  7  8  2  0  0  0
  7 37  1  0  0  0
  8  9  1  0  0  0
  8 38  1  0  0  0
  9 10  1  0  0  0
  9 29  2  0  0  0
 10 11  1  0  0  0
 10 17  1  0  0  0
 11 12  1  0  0  0
 11 39  1  0  0  0
 11 40  1  0  0  0
 12 16  1  0  0  0
 12 13  2  0  0  0
 13 14  1  0  0  0
 13 41  1  0  0  0
 14 15  1  0  0  0
 15 16  2  0  0  0
 15 42  1  0  0  0
 17 18  2  0  0  0
 17 19  1  0  0  0
 19 20  1  0  0  0
 19 43  1  0  0  0
 19 44  1  0  0  0
 20 28  1  0  0  0
 20 21  1  0  0  0
 21 22  2  0  0  0
 22 23  1  0  0  0
 23 28  2  0  0  0
 23 24  1  0  0  0
 24 25  2  0  0  0
 24 45  1  0  0  0
 25 26  1  0  0  0
 25 46  1  0  0  0
 26 27  2  0  0  0
 26 47  1  0  0  0
 27 28  1  0  0  0
 27 48  1  0  0  0
 29 30  1  0  0  0
 29 49  1  0  0  0
 30 50  1  0  0  0
M  END
> <r_i_docking_score>
-5.49054888718623

$$$$
ligprep_5.maegz:333
                    3D
 Schrodinger Suite 2020-4.
 37 40  0  0  1  0            999 V2000
    5.5698   -3.2536   20.9436 O   0  0  0  0  0  0
    6.3590   -3.1265   21.8814 C   0  0  0  0  0  0
    6.5185   -3.9993   22.8549 O   0  0  0  0  0  0
    7.4743   -3.4625   23.6492 C   0  0  0  0  0  0
    7.8961   -4.1679   24.8479 C   0  0  0  0  0  0
    9.1729   -4.2663   25.3917 C   0  0  0  0  0  0
    9.2087   -5.0294   26.5614 C   0  0  0  0  0  0
    7.9548   -5.4735   26.9476 C   0  0  0  0  0  0
    6.7296   -5.0327   25.8064 S   0  0  0  0  0  0
    7.9507   -2.3549   23.2804 N   0  0  0  0  0  0
    7.2627   -2.0225   22.1665 C   0  0  0  0  0  0
    7.3028   -0.8941   21.4248 C   0  0  0  0  0  0
    8.1151    0.2831   21.6707 C   0  0  0  0  0  0
    7.6962    1.6007   21.5469 C   0  0  0  0  0  0
    8.6698    2.5281   21.9310 C   0  0  0  0  0  0
    9.8776    1.9408   22.3082 C   0  0  0  0  0  0
   11.0405    2.5567   22.7058 N   0  0  0  0  0  0
   11.1321    3.9711   23.1078 C   0  0  0  0  0  0
   12.3792    4.6831   22.5283 C   0  0  0  0  0  0
   13.5671    3.9480   22.8049 O   0  0  0  0  0  0
   13.4889    2.6201   22.3054 C   0  0  0  0  0  0
   12.3147    1.8692   22.9547 C   0  0  0  0  0  0
    9.7754    0.2011   22.1835 S   0  0  0  0  0  0
   10.0447   -3.8187   24.9394 H   0  0  0  0  0  0
   10.1137   -5.2506   27.1076 H   0  0  0  0  0  0
    7.7000   -6.0529   27.8179 H   0  0  0  0  0  0
    6.6468   -0.7958   20.5704 H   0  0  0  0  0  0
    6.7038    1.8862   21.2248 H   0  0  0  0  0  0
    8.4858    3.5898   21.9107 H   0  0  0  0  0  0
   10.2548    4.5160   22.7598 H   0  0  0  0  0  0
   11.1046    4.0343   24.1974 H   0  0  0  0  0  0
   12.4765    5.6755   22.9681 H   0  0  0  0  0  0
   12.2780    4.8356   21.4518 H   0  0  0  0  0  0
   14.4165    2.0894   22.4954 H   0  0  0  0  0  0
   13.3856    2.6422   21.2162 H   0  0  0  0  0  0
   12.4566    1.7433   24.0299 H   0  0  0  0  0  0
   12.3088    0.8601   22.5451 H   0  0  0  0  0  0
  1  2  2  0  0  0
  2 11  1  0  0  0
  2  3  1  0  0  0
  3  4  1  0  0  0
  4  5  1  0  0  0
  4 10  2  0  0  0
  5  9  1  0  0  0
  5  6  2  0  0  0
  6  7  1  0  0  0
  6 24  1  0  0  0
  7  8  2  0  0  0
  7 25  1  0  0  0
  8  9  1  0  0  0
  8 26  1  0  0  0
 10 11  1  0  0  0
 11 12  2  0  0  0
 12 13  1  0  0  0
 12 27  1  0  0  0
 13 23  1  0  0  0
 13 14  2  0  0  0
 14 15  1  0  0  0
 14 28  1  0  0  0
 15 16  2  0  0  0
 15 29  1  0  0  0
 16 17  1  0  0  0
 16 23  1  0  0  0
 17 22  1  0  0  0
 17 18  1  0  0  0
 18 19  1  0  0  0
 18 30  1  0  0  0
 18 31  1  0  0  0
 19 20  1  0  0  0
 19 32  1  0  0  0
 19 33  1  0  0  0
 20 21  1  0  0  0
 21 22  1  0  0  0
 21 34  1  0  0  0
 21 35  1  0  0  0
 22 36  1  0  0  0
 22 37  1  0  0  0
M  END
> <r_i_docking_score>
-6.46417210861422

$$$$
ligprep_5.maegz:334
                    3D
 Schrodinger Suite 2020-4.
 53 56  0  0  1  0            999 V2000
    1.2391    4.4559   19.4629 C   0  0  0  0  0  0
    2.3746    3.7121   18.7322 C   0  0  0  0  0  0
    3.1773    2.7415   19.6082 C   0  0  0  0  0  0
    2.7063    2.3468   20.6776 O   0  0  0  0  0  0
    4.3724    2.3446   19.1091 N   0  0  0  0  0  0
    5.3535    1.5717   19.7665 C   0  0  0  0  0  0
    6.1810    0.7429   18.9995 C   0  0  0  0  0  0
    7.1610   -0.0401   19.6185 C   0  0  0  0  0  0
    7.3185    0.0140   21.0095 C   0  0  0  0  0  0
    8.2593   -0.8142   21.6702 N   0  0  0  0  0  0
    9.5731   -0.2220   22.0150 C   0  0  0  0  0  0
    9.5036    0.9799   22.9443 C   0  0  0  0  0  0
    9.1038    0.8039   24.2701 C   0  0  0  0  0  0
    9.0033    1.9083   25.1103 C   0  0  0  0  0  0
    9.3244    3.1773   24.6297 C   0  0  0  0  0  0
    9.7477    3.3512   23.3155 C   0  0  0  0  0  0
    9.8457    2.2489   22.4717 C   0  0  0  0  0  0
    7.9328   -2.0573   22.1530 C   0  0  0  0  0  0
    8.7045   -2.7186   22.8539 O   0  0  0  0  0  0
    6.7179   -2.5364   21.8043 N   0  0  0  0  0  0
    6.2636   -3.7906   22.1433 N   0  0  0  0  0  0
    6.6579   -4.9102   21.5035 N   0  0  0  0  0  0
    5.9877   -5.9879   22.0328 N   0  0  0  0  0  0
    5.1748   -5.5108   23.0137 C   0  0  0  0  0  0
    4.2787   -6.1822   23.8539 C   0  0  0  0  0  0
    3.5602   -5.4264   24.7827 C   0  0  0  0  0  0
    3.7301   -4.0441   24.8772 C   0  0  0  0  0  0
    4.6142   -3.3458   24.0515 C   0  0  0  0  0  0
    5.3290   -4.1059   23.1184 C   0  0  0  0  0  0
    6.5169    0.8676   21.7713 C   0  0  0  0  0  0
    5.5526    1.6504   21.1502 C   0  0  0  0  0  0
    0.7235    5.1249   18.7702 H   0  0  0  0  0  0
    1.6221    5.0780   20.2777 H   0  0  0  0  0  0
    0.4873    3.7673   19.8574 H   0  0  0  0  0  0
    1.9426    3.1479   17.9065 H   0  0  0  0  0  0
    3.0585    4.4415   18.2984 H   0  0  0  0  0  0
    4.5631    2.6074   18.1519 H   0  0  0  0  0  0
    6.0590    0.6848   17.9264 H   0  0  0  0  0  0
    7.7762   -0.7000   19.0229 H   0  0  0  0  0  0
   10.2407   -0.9523   22.4798 H   0  0  0  0  0  0
   10.0959    0.0633   21.1076 H   0  0  0  0  0  0
    8.8526   -0.1797   24.6402 H   0  0  0  0  0  0
    8.6823    1.7782   26.1333 H   0  0  0  0  0  0
    9.2356    4.0321   25.2848 H   0  0  0  0  0  0
    9.9910    4.3364   22.9447 H   0  0  0  0  0  0
   10.1645    2.3903   21.4507 H   0  0  0  0  0  0
    6.1176   -1.9604   21.2357 H   0  0  0  0  0  0
    4.1467   -7.2525   23.7744 H   0  0  0  0  0  0
    2.8645   -5.9216   25.4454 H   0  0  0  0  0  0
    3.1542   -3.4975   25.6111 H   0  0  0  0  0  0
    4.7288   -2.2725   24.1264 H   0  0  0  0  0  0
    6.6313    0.9237   22.8450 H   0  0  0  0  0  0
    4.9488    2.3046   21.7612 H   0  0  0  0  0  0
  1  2  1  0  0  0
  1 32  1  0  0  0
  1 33  1  0  0  0
  1 34  1  0  0  0
  2  3  1  0  0  0
  2 35  1  0  0  0
  2 36  1  0  0  0
  3  4  2  0  0  0
  3  5  1  0  0  0
  5  6  1  0  0  0
  5 37  1  0  0  0
  6 31  2  0  0  0
  6  7  1  0  0  0
  7  8  2  0  0  0
  7 38  1  0  0  0
  8  9  1  0  0  0
  8 39  1  0  0  0
  9 10  1  0  0  0
  9 30  2  0  0  0
 10 11  1  0  0  0
 10 18  1  0  0  0
 11 12  1  0  0  0
 11 40  1  0  0  0
 11 41  1  0  0  0
 12 17  2  0  0  0
 12 13  1  0  0  0
 13 14  2  0  0  0
 13 42  1  0  0  0
 14 15  1  0  0  0
 14 43  1  0  0  0
 15 16  2  0  0  0
 15 44  1  0  0  0
 16 17  1  0  0  0
 16 45  1  0  0  0
 17 46  1  0  0  0
 18 19  2  0  0  0
 18 20  1  0  0  0
 20 21  1  0  0  0
 20 47  1  0  0  0
 21 29  1  0  0  0
 21 22  1  0  0  0
 22 23  2  0  0  0
 23 24  1  0  0  0
 24 29  2  0  0  0
 24 25  1  0  0  0
 25 26  2  0  0  0
 25 48  1  0  0  0
 26 27  1  0  0  0
 26 49  1  0  0  0
 27 28  2  0  0  0
 27 50  1  0  0  0
 28 29  1  0  0  0
 28 51  1  0  0  0
 30 31  1  0  0  0
 30 52  1  0  0  0
 31 53  1  0  0  0
M  END
> <r_i_docking_score>
-3.15766780991448

$$$$
ligprep_5.maegz:335
                    3D
 Schrodinger Suite 2020-4.
 59 63  0  0  1  0            999 V2000
    5.9975    1.1287   19.4539 O   0  0  0  0  0  0
    5.1758    1.7728   20.1146 C   0  0  0  0  0  0
    3.8913    2.2871   19.4304 C   0  0  0  0  0  0
    2.7479    2.6490   20.3855 C   0  0  0  0  0  0
    3.2750    3.5204   21.5144 C   0  0  0  0  0  0
    4.3626    2.7718   22.3003 C   0  0  0  0  0  0
    5.3842    2.1517   21.4220 N   0  0  0  0  0  0
    6.5281    1.6724   22.0881 C   0  0  0  0  0  0
    6.4290    0.6461   23.0340 C   0  0  0  0  0  0
    7.5869    0.1010   23.5836 C   0  0  0  0  0  0
    8.8407    0.5310   23.1338 C   0  0  0  0  0  0
   10.0144   -0.0621   23.6350 N   0  0  0  0  0  0
   10.8554    0.7685   24.5212 C   0  0  0  0  0  0
   11.6037    1.8831   23.7967 C   0  0  0  0  0  0
   11.1703    3.2082   23.9079 C   0  0  0  0  0  0
   11.8320    4.2182   23.2141 C   0  0  0  0  0  0
   12.9275    3.9010   22.4154 C   0  0  0  0  0  0
   13.3680    2.5844   22.3079 C   0  0  0  0  0  0
   12.7120    1.5731   23.0050 C   0  0  0  0  0  0
   10.4635   -1.2724   23.1870 C   0  0  0  0  0  0
   11.5689   -1.7185   23.5051 O   0  0  0  0  0  0
    9.5964   -2.1527   22.2582 C   0  0  0  0  0  0
    8.5012   -2.9266   22.9819 C   0  0  0  0  0  0
    7.2864   -2.9669   22.4866 N   0  0  0  0  0  0
    6.5234   -3.6858   23.3281 N   0  0  0  0  0  0
    7.2467   -4.1626   24.3999 C   0  0  0  0  0  0
    6.8895   -4.9389   25.5074 C   0  0  0  0  0  0
    7.9110   -5.2625   26.4035 C   0  0  0  0  0  0
    9.2235   -4.8389   26.2087 C   0  0  0  0  0  0
    9.5695   -4.0518   25.1090 C   0  0  0  0  0  0
    8.5700   -3.7010   24.1882 C   0  0  0  0  0  0
    8.9299    1.5837   22.2183 C   0  0  0  0  0  0
    7.7775    2.1899   21.7476 C   0  0  0  0  0  0
    3.5696    1.5422   18.7078 H   0  0  0  0  0  0
    4.1829    3.1561   18.8429 H   0  0  0  0  0  0
    2.2918    1.7432   20.7877 H   0  0  0  0  0  0
    1.9606    3.1727   19.8406 H   0  0  0  0  0  0
    3.6869    4.4480   21.1102 H   0  0  0  0  0  0
    2.4685    3.8149   22.1851 H   0  0  0  0  0  0
    4.8504    3.4482   23.0041 H   0  0  0  0  0  0
    3.9084    1.9722   22.8872 H   0  0  0  0  0  0
    5.4680    0.2517   23.3240 H   0  0  0  0  0  0
    7.5091   -0.6879   24.3182 H   0  0  0  0  0  0
   10.2216    1.1973   25.2995 H   0  0  0  0  0  0
   11.5888    0.1605   25.0550 H   0  0  0  0  0  0
   10.3108    3.4521   24.5153 H   0  0  0  0  0  0
   11.4905    5.2399   23.2873 H   0  0  0  0  0  0
   13.4389    4.6841   21.8753 H   0  0  0  0  0  0
   14.2236    2.3476   21.6929 H   0  0  0  0  0  0
   13.0536    0.5514   22.9147 H   0  0  0  0  0  0
    9.2008   -1.5395   21.4452 H   0  0  0  0  0  0
   10.2648   -2.8481   21.7498 H   0  0  0  0  0  0
    5.5433   -3.8256   23.1367 H   0  0  0  0  0  0
    5.8806   -5.2899   25.6617 H   0  0  0  0  0  0
    7.6833   -5.8746   27.2638 H   0  0  0  0  0  0
    9.9820   -5.1291   26.9214 H   0  0  0  0  0  0
   10.5922   -3.7353   24.9609 H   0  0  0  0  0  0
    9.8826    1.9509   21.8696 H   0  0  0  0  0  0
    7.8599    3.0469   21.1069 H   0  0  0  0  0  0
  1  2  2  0  0  0
  2  7  1  0  0  0
  2  3  1  0  0  0
  3  4  1  0  0  0
  3 34  1  0  0  0
  3 35  1  0  0  0
  4  5  1  0  0  0
  4 36  1  0  0  0
  4 37  1  0  0  0
  5  6  1  0  0  0
  5 38  1  0  0  0
  5 39  1  0  0  0
  6  7  1  0  0  0
  6 40  1  0  0  0
  6 41  1  0  0  0
  7  8  1  0  0  0
  8 33  2  0  0  0
  8  9  1  0  0  0
  9 10  2  0  0  0
  9 42  1  0  0  0
 10 11  1  0  0  0
 10 43  1  0  0  0
 11 12  1  0  0  0
 11 32  2  0  0  0
 12 13  1  0  0  0
 12 20  1  0  0  0
 13 14  1  0  0  0
 13 44  1  0  0  0
 13 45  1  0  0  0
 14 19  2  0  0  0
 14 15  1  0  0  0
 15 16  2  0  0  0
 15 46  1  0  0  0
 16 17  1  0  0  0
 16 47  1  0  0  0
 17 18  2  0  0  0
 17 48  1  0  0  0
 18 19  1  0  0  0
 18 49  1  0  0  0
 19 50  1  0  0  0
 20 21  2  0  0  0
 20 22  1  0  0  0
 22 23  1  0  0  0
 22 51  1  0  0  0
 22 52  1  0  0  0
 23 31  1  0  0  0
 23 24  2  0  0  0
 24 25  1  0  0  0
 25 26  1  0  0  0
 25 53  1  0  0  0
 26 31  2  0  0  0
 26 27  1  0  0  0
 27 28  2  0  0  0
 27 54  1  0  0  0
 28 29  1  0  0  0
 28 55  1  0  0  0
 29 30  2  0  0  0
 29 56  1  0  0  0
 30 31  1  0  0  0
 30 57  1  0  0  0
 32 33  1  0  0  0
 32 58  1  0  0  0
 33 59  1  0  0  0
M  END
> <r_i_docking_score>
-4.66413662176958

$$$$
ligprep_5.maegz:336
                    3D
 Schrodinger Suite 2020-4.
 37 38  0  0  1  0            999 V2000
    8.7650   -0.6677   26.7524 C   0  0  0  0  0  0
    9.1368   -0.7258   25.3819 O   0  0  0  0  0  0
    8.3384   -0.1845   24.4291 C   0  0  0  0  0  0
    7.2540    0.3605   24.6539 O   0  0  0  0  0  0
    8.8843   -0.3777   22.9854 C   0  0  1  0  0  0
    8.1792    0.4349   21.8606 C   0  0  0  0  0  0
    8.8377    1.1585   21.1079 O   0  0  0  0  0  0
    6.8401    0.3122   21.7544 N   0  0  0  0  0  0
    6.0544    0.9682   20.7994 C   0  0  0  0  0  0
    5.1660    1.9470   21.2525 C   0  0  0  0  0  0
    4.3291    2.6287   20.4334 N   0  0  0  0  0  0
    4.3764    2.3455   19.1080 C   0  0  0  0  0  0
    5.2246    1.3775   18.5689 C   0  0  0  0  0  0
    6.0818    0.6717   19.4210 C   0  0  0  0  0  0
    6.9699   -0.4167   18.8322 C   0  0  0  0  0  0
   10.4193   -0.2047   22.9367 C   0  0  0  0  0  0
   11.0288    0.9799   23.3796 C   0  0  0  0  0  0
   12.4055    1.1561   23.2628 C   0  0  0  0  0  0
   13.1907    0.1480   22.7067 C   0  0  0  0  0  0
   12.5988   -1.0362   22.2673 C   0  0  0  0  0  0
   13.5691   -2.2729   21.5593 Cl  0  0  0  0  0  0
   11.2183   -1.2076   22.3711 C   0  0  0  0  0  0
    9.6332   -0.8592   27.3834 H   0  0  0  0  0  0
    8.3696    0.3130   27.0247 H   0  0  0  0  0  0
    8.0050   -1.4153   26.9758 H   0  0  0  0  0  0
    8.6660   -1.4200   22.7542 H   0  0  0  0  0  0
    6.3433   -0.1155   22.5234 H   0  0  0  0  0  0
    5.1008    2.1963   22.3004 H   0  0  0  0  0  0
    3.7280    2.9289   18.4686 H   0  0  0  0  0  0
    5.2153    1.1907   17.5046 H   0  0  0  0  0  0
    6.5450   -0.8214   17.9111 H   0  0  0  0  0  0
    7.9695   -0.0322   18.6222 H   0  0  0  0  0  0
    7.0635   -1.2515   19.5250 H   0  0  0  0  0  0
   10.4287    1.7770   23.7928 H   0  0  0  0  0  0
   12.8657    2.0762   23.5905 H   0  0  0  0  0  0
   14.2572    0.2933   22.6087 H   0  0  0  0  0  0
   10.7720   -2.1190   21.9953 H   0  0  0  0  0  0
  1  2  1  0  0  0
  1 23  1  0  0  0
  1 24  1  0  0  0
  1 25  1  0  0  0
  2  3  1  0  0  0
  3  4  2  0  0  0
  3  5  1  0  0  0
  5  6  1  0  0  0
  5 16  1  0  0  0
  5 26  1  0  0  0
  6  7  2  0  0  0
  6  8  1  0  0  0
  8  9  1  0  0  0
  8 27  1  0  0  0
  9 14  2  0  0  0
  9 10  1  0  0  0
 10 11  2  0  0  0
 10 28  1  0  0  0
 11 12  1  0  0  0
 12 13  2  0  0  0
 12 29  1  0  0  0
 13 14  1  0  0  0
 13 30  1  0  0  0
 14 15  1  0  0  0
 15 31  1  0  0  0
 15 32  1  0  0  0
 15 33  1  0  0  0
 16 22  2  0  0  0
 16 17  1  0  0  0
 17 18  2  0  0  0
 17 34  1  0  0  0
 18 19  1  0  0  0
 18 35  1  0  0  0
 19 20  2  0  0  0
 19 36  1  0  0  0
 20 21  1  0  0  0
 20 22  1  0  0  0
 22 37  1  0  0  0
M  END
> <r_i_docking_score>
-6.06374579840544

$$$$
ligprep_5.maegz:337
                    3D
 Schrodinger Suite 2020-4.
 36 39  0  0  1  0            999 V2000
    8.1094   -2.3294   26.1392 O   0  0  0  0  0  0
    8.6240   -2.9965   25.2380 C   0  0  0  0  0  0
    9.4661   -2.4937   24.3070 N   0  0  0  0  0  0
    9.9681   -1.1758   24.1805 C   0  0  0  0  0  0
    9.3662   -0.0572   24.7883 C   0  0  0  0  0  0
    9.8491    1.2032   24.7160 N   0  0  0  0  0  0
   10.9858    1.3949   24.0210 C   0  0  0  0  0  0
   11.6905    0.3770   23.3465 C   0  0  0  0  0  0
   12.8808    0.6323   22.6306 C   0  0  0  0  0  0
   13.5052   -0.3983   21.9365 C   0  0  0  0  0  0
   12.9841   -1.6852   21.9468 C   0  0  0  0  0  0
   11.8365   -1.9724   22.6812 C   0  0  0  0  0  0
   11.1542   -0.9478   23.4020 C   0  0  0  0  0  0
    8.3499   -4.5123   25.1473 C   0  0  1  0  0  0
    7.7546   -5.0931   26.4552 C   0  0  0  0  0  0
    6.3640   -5.3209   26.2201 O   0  0  0  0  0  0
    6.1674   -5.2873   24.8650 C   0  0  0  0  0  0
    4.9844   -5.6659   24.2382 C   0  0  0  0  0  0
    4.9356   -5.6487   22.8425 C   0  0  0  0  0  0
    6.0479   -5.2295   22.1049 C   0  0  0  0  0  0
    5.9698   -5.2394   20.3802 Cl  0  0  0  0  0  0
    7.2165   -4.8143   22.7576 C   0  0  0  0  0  0
    7.2720   -4.8523   24.1541 C   0  0  0  0  0  0
    9.8332   -3.1525   23.6377 H   0  0  0  0  0  0
    8.4539   -0.1339   25.3550 H   0  0  0  0  0  0
   11.3560    2.4087   23.9960 H   0  0  0  0  0  0
   13.2816    1.6347   22.5920 H   0  0  0  0  0  0
   14.3686   -0.1727   21.3327 H   0  0  0  0  0  0
   13.4703   -2.4665   21.3818 H   0  0  0  0  0  0
   11.4581   -2.9818   22.6845 H   0  0  0  0  0  0
    9.2957   -5.0025   24.9232 H   0  0  0  0  0  0
    7.9044   -4.4972   27.3576 H   0  0  0  0  0  0
    8.2255   -6.0561   26.6526 H   0  0  0  0  0  0
    4.1318   -5.9995   24.8101 H   0  0  0  0  0  0
    4.0449   -5.9749   22.3234 H   0  0  0  0  0  0
    8.0669   -4.4895   22.1775 H   0  0  0  0  0  0
  1  2  2  0  0  0
  2  3  1  0  0  0
  2 14  1  0  0  0
  3  4  1  0  0  0
  3 24  1  0  0  0
  4 13  2  0  0  0
  4  5  1  0  0  0
  5  6  2  0  0  0
  5 25  1  0  0  0
  6  7  1  0  0  0
  7  8  2  0  0  0
  7 26  1  0  0  0
  8 13  1  0  0  0
  8  9  1  0  0  0
  9 10  2  0  0  0
  9 27  1  0  0  0
 10 11  1  0  0  0
 10 28  1  0  0  0
 11 12  2  0  0  0
 11 29  1  0  0  0
 12 13  1  0  0  0
 12 30  1  0  0  0
 14 23  1  0  0  0
 14 15  1  0  0  0
 14 31  1  0  0  0
 15 16  1  0  0  0
 15 32  1  0  0  0
 15 33  1  0  0  0
 16 17  1  0  0  0
 17 23  2  0  0  0
 17 18  1  0  0  0
 18 19  2  0  0  0
 18 34  1  0  0  0
 19 20  1  0  0  0
 19 35  1  0  0  0
 20 21  1  0  0  0
 20 22  2  0  0  0
 22 23  1  0  0  0
 22 36  1  0  0  0
M  END
> <r_i_docking_score>
-6.71902714390813

$$$$
ligprep_5.maegz:338
                    3D
 Schrodinger Suite 2020-4.
 33 35  0  0  1  0            999 V2000
    9.1537    1.9091   21.1245 O   0  0  0  0  0  0
    8.9239    1.1448   22.0664 C   0  0  0  0  0  0
    7.5163    0.5643   22.2705 C   0  0  0  0  0  0
    6.6937    0.5893   20.9862 C   0  0  0  0  0  0
    7.0472   -0.2359   19.9127 C   0  0  0  0  0  0
    6.3551   -0.1534   18.7083 C   0  0  0  0  0  0
    5.3002    0.7476   18.5696 C   0  0  0  0  0  0
    4.9187    1.5471   19.6471 C   0  0  0  0  0  0
    3.5694    2.6112   19.5078 Cl  0  0  0  0  0  0
    5.6227    1.4784   20.8482 C   0  0  0  0  0  0
    9.8602    0.7599   22.9557 N   0  0  0  0  0  0
   11.2117    1.0979   22.8282 C   0  0  0  0  0  0
   12.1246    0.0659   22.5881 C   0  0  0  0  0  0
   13.4351    0.2687   22.3158 N   0  0  0  0  0  0
   13.8720    1.5479   22.3079 C   0  0  0  0  0  0
   13.0731    2.6805   22.5799 C   0  0  0  0  0  0
   13.5691    4.0099   22.5714 C   0  0  0  0  0  0
   12.7003    5.0516   22.8901 C   0  0  0  0  0  0
   11.3937    4.8680   23.1933 N   0  0  0  0  0  0
   10.9196    3.5993   23.1700 C   0  0  0  0  0  0
   11.6967    2.4477   22.8711 C   0  0  0  0  0  0
    7.0198    1.1517   23.0435 H   0  0  0  0  0  0
    7.5752   -0.4612   22.6380 H   0  0  0  0  0  0
    7.8761   -0.9238   20.0000 H   0  0  0  0  0  0
    6.6418   -0.7908   17.8873 H   0  0  0  0  0  0
    4.7688    0.8123   17.6318 H   0  0  0  0  0  0
    5.3345    2.1198   21.6682 H   0  0  0  0  0  0
    9.6297    0.0090   23.5889 H   0  0  0  0  0  0
   11.7964   -0.9627   22.5391 H   0  0  0  0  0  0
   14.9123    1.6894   22.0565 H   0  0  0  0  0  0
   14.6073    4.1998   22.3419 H   0  0  0  0  0  0
   13.0576    6.0706   22.9143 H   0  0  0  0  0  0
    9.8691    3.4937   23.3933 H   0  0  0  0  0  0
  1  2  2  0  0  0
  2  3  1  0  0  0
  2 11  1  0  0  0
  3  4  1  0  0  0
  3 22  1  0  0  0
  3 23  1  0  0  0
  4 10  2  0  0  0
  4  5  1  0  0  0
  5  6  2  0  0  0
  5 24  1  0  0  0
  6  7  1  0  0  0
  6 25  1  0  0  0
  7  8  2  0  0  0
  7 26  1  0  0  0
  8  9  1  0  0  0
  8 10  1  0  0  0
 10 27  1  0  0  0
 11 12  1  0  0  0
 11 28  1  0  0  0
 12 21  2  0  0  0
 12 13  1  0  0  0
 13 14  2  0  0  0
 13 29  1  0  0  0
 14 15  1  0  0  0
 15 16  2  0  0  0
 15 30  1  0  0  0
 16 21  1  0  0  0
 16 17  1  0  0  0
 17 18  2  0  0  0
 17 31  1  0  0  0
 18 19  1  0  0  0
 18 32  1  0  0  0
 19 20  2  0  0  0
 20 21  1  0  0  0
 20 33  1  0  0  0
M  END
> <r_i_docking_score>
-6.94784556206862

$$$$
ligprep_5.maegz:339
                    3D
 Schrodinger Suite 2020-4.
 52 55  0  0  1  0            999 V2000
   12.5464    2.1815   23.2365 C   0  0  0  0  0  0
   12.4038    0.8289   22.7073 N   0  0  0  0  0  0
   13.6188    0.0870   22.3777 C   0  0  0  0  0  0
   11.1385    0.1906   22.7080 C   0  0  0  0  0  0
   10.0709    0.6764   23.4760 C   0  0  0  0  0  0
    8.8241    0.0548   23.4516 C   0  0  0  0  0  0
    8.6014   -1.0644   22.6390 C   0  0  0  0  0  0
    7.3077   -1.6572   22.6027 N   0  0  0  0  0  0
    6.1606   -0.7480   22.3658 C   0  0  0  0  0  0
    6.0645   -0.1101   20.9797 C   0  0  0  0  0  0
    6.3597   -0.8466   19.8308 C   0  0  0  0  0  0
    6.1759   -0.2806   18.5742 C   0  0  0  0  0  0
    5.7074    1.0263   18.4667 C   0  0  0  0  0  0
    5.4309    1.7758   19.6054 C   0  0  0  0  0  0
    5.6158    1.2088   20.8652 C   0  0  0  0  0  0
    7.0909   -3.0069   22.5167 C   0  0  0  0  0  0
    6.0411   -3.4877   22.0754 O   0  0  0  0  0  0
    8.1217   -4.0139   23.0693 C   0  0  0  0  0  0
    8.0327   -4.2381   24.5060 N   0  0  0  0  0  0
    9.0693   -3.9143   25.3068 N   0  0  0  0  0  0
    8.7665   -4.3005   26.5938 N   0  0  0  0  0  0
    7.5366   -4.8875   26.5625 C   0  0  0  0  0  0
    6.7864   -5.4802   27.5867 C   0  0  0  0  0  0
    5.5476   -6.0320   27.2578 C   0  0  0  0  0  0
    5.0549   -5.9787   25.9527 C   0  0  0  0  0  0
    5.7776   -5.3853   24.9129 C   0  0  0  0  0  0
    7.0301   -4.8517   25.2409 C   0  0  0  0  0  0
    9.6570   -1.5287   21.8420 C   0  0  0  0  0  0
   10.9099   -0.9353   21.9084 C   0  0  0  0  0  0
   12.3684    2.1695   24.3065 H   0  0  0  0  0  0
   13.5432    2.5937   23.0607 H   0  0  0  0  0  0
   11.8139    2.8526   22.7901 H   0  0  0  0  0  0
   13.5710   -0.3864   21.4001 H   0  0  0  0  0  0
   14.4972    0.7337   22.3825 H   0  0  0  0  0  0
   13.7823   -0.7081   23.1059 H   0  0  0  0  0  0
   10.1912    1.5392   24.1147 H   0  0  0  0  0  0
    8.0367    0.4520   24.0746 H   0  0  0  0  0  0
    5.2142   -1.2679   22.5287 H   0  0  0  0  0  0
    6.1645    0.0370   23.1206 H   0  0  0  0  0  0
    6.7001   -1.8683   19.9072 H   0  0  0  0  0  0
    6.3798   -0.8568   17.6849 H   0  0  0  0  0  0
    5.5559    1.4633   17.4885 H   0  0  0  0  0  0
    5.0743    2.7924   19.5118 H   0  0  0  0  0  0
    5.3717    1.7853   21.7460 H   0  0  0  0  0  0
    9.1421   -3.7337   22.8346 H   0  0  0  0  0  0
    7.9831   -4.9769   22.5720 H   0  0  0  0  0  0
    7.1679   -5.5322   28.5938 H   0  0  0  0  0  0
    4.9582   -6.5162   28.0232 H   0  0  0  0  0  0
    4.0906   -6.4185   25.7375 H   0  0  0  0  0  0
    5.3903   -5.3589   23.9042 H   0  0  0  0  0  0
    9.5188   -2.3532   21.1573 H   0  0  0  0  0  0
   11.6848   -1.3377   21.2796 H   0  0  0  0  0  0
  1  2  1  0  0  0
  1 30  1  0  0  0
  1 31  1  0  0  0
  1 32  1  0  0  0
  2  3  1  0  0  0
  2  4  1  0  0  0
  3 33  1  0  0  0
  3 34  1  0  0  0
  3 35  1  0  0  0
  4 29  2  0  0  0
  4  5  1  0  0  0
  5  6  2  0  0  0
  5 36  1  0  0  0
  6  7  1  0  0  0
  6 37  1  0  0  0
  7  8  1  0  0  0
  7 28  2  0  0  0
  8  9  1  0  0  0
  8 16  1  0  0  0
  9 10  1  0  0  0
  9 38  1  0  0  0
  9 39  1  0  0  0
 10 15  2  0  0  0
 10 11  1  0  0  0
 11 12  2  0  0  0
 11 40  1  0  0  0
 12 13  1  0  0  0
 12 41  1  0  0  0
 13 14  2  0  0  0
 13 42  1  0  0  0
 14 15  1  0  0  0
 14 43  1  0  0  0
 15 44  1  0  0  0
 16 17  2  0  0  0
 16 18  1  0  0  0
 18 19  1  0  0  0
 18 45  1  0  0  0
 18 46  1  0  0  0
 19 27  1  0  0  0
 19 20  1  0  0  0
 20 21  2  0  0  0
 21 22  1  0  0  0
 22 27  2  0  0  0
 22 23  1  0  0  0
 23 24  2  0  0  0
 23 47  1  0  0  0
 24 25  1  0  0  0
 24 48  1  0  0  0
 25 26  2  0  0  0
 25 49  1  0  0  0
 26 27  1  0  0  0
 26 50  1  0  0  0
 28 29  1  0  0  0
 28 51  1  0  0  0
 29 52  1  0  0  0
M  END
> <r_i_docking_score>
-6.50049109944894

$$$$
ligprep_5.maegz:340
                    3D
 Schrodinger Suite 2020-4.
 52 55  0  0  1  0            999 V2000
    4.7692    2.1660   18.5226 C   0  0  0  0  0  0
    5.0656    2.1850   19.9556 N   0  0  0  0  0  0
    4.3228    3.1502   20.7657 C   0  0  0  0  0  0
    5.6859    1.0775   20.5886 C   0  0  0  0  0  0
    5.9898    1.1057   21.9587 C   0  0  0  0  0  0
    6.5420   -0.0045   22.5972 C   0  0  0  0  0  0
    6.8079   -1.1780   21.8813 C   0  0  0  0  0  0
    7.3132   -2.3374   22.5491 N   0  0  0  0  0  0
    8.3454   -2.1427   23.5999 C   0  0  0  0  0  0
    9.6065   -1.3777   23.2122 C   0  0  0  0  0  0
    9.7769   -0.0496   23.6189 C   0  0  0  0  0  0
   10.9722    0.6204   23.3582 C   0  0  0  0  0  0
   12.0134   -0.0400   22.7079 C   0  0  0  0  0  0
   11.8595   -1.3701   22.3137 C   0  0  0  0  0  0
   13.1688   -2.1811   21.5319 Cl  0  0  0  0  0  0
   10.6584   -2.0394   22.5665 C   0  0  0  0  0  0
    6.7649   -3.5781   22.3097 C   0  0  0  0  0  0
    5.7940   -3.7537   21.5639 O   0  0  0  0  0  0
    7.3351   -4.8599   22.9572 C   0  0  0  0  0  0
    7.2336   -4.9529   24.4149 N   0  0  0  0  0  0
    8.3338   -5.2157   25.1529 N   0  0  0  0  0  0
    7.9714   -5.2803   26.4794 N   0  0  0  0  0  0
    6.6199   -5.1164   26.5371 C   0  0  0  0  0  0
    5.7524   -5.1343   27.6365 C   0  0  0  0  0  0
    4.3910   -4.9371   27.3962 C   0  0  0  0  0  0
    3.9053   -4.7291   26.1035 C   0  0  0  0  0  0
    4.7474   -4.7079   24.9879 C   0  0  0  0  0  0
    6.1128   -4.9035   25.2300 C   0  0  0  0  0  0
    6.5526   -1.1840   20.5029 C   0  0  0  0  0  0
    6.0031   -0.0789   19.8671 C   0  0  0  0  0  0
    3.9696    1.4565   18.3085 H   0  0  0  0  0  0
    4.4575    3.1472   18.1591 H   0  0  0  0  0  0
    5.6334    1.8565   17.9371 H   0  0  0  0  0  0
    4.9997    3.7370   21.3873 H   0  0  0  0  0  0
    3.7380    3.8419   20.1572 H   0  0  0  0  0  0
    3.6235    2.6328   21.4240 H   0  0  0  0  0  0
    5.7799    1.9800   22.5543 H   0  0  0  0  0  0
    6.7160    0.0477   23.6606 H   0  0  0  0  0  0
    7.8794   -1.6728   24.4664 H   0  0  0  0  0  0
    8.7298   -3.0786   23.9856 H   0  0  0  0  0  0
    8.9904    0.4654   24.1502 H   0  0  0  0  0  0
   11.0957    1.6471   23.6721 H   0  0  0  0  0  0
   12.9412    0.4785   22.5150 H   0  0  0  0  0  0
   10.5509   -3.0728   22.2778 H   0  0  0  0  0  0
    8.3694   -4.9687   22.6436 H   0  0  0  0  0  0
    6.8176   -5.7309   22.5515 H   0  0  0  0  0  0
    6.1260   -5.3034   28.6359 H   0  0  0  0  0  0
    3.6981   -4.9493   28.2254 H   0  0  0  0  0  0
    2.8443   -4.5833   25.9616 H   0  0  0  0  0  0
    4.3579   -4.5478   23.9925 H   0  0  0  0  0  0
    6.7691   -2.0530   19.9063 H   0  0  0  0  0  0
    5.8032   -0.1566   18.8098 H   0  0  0  0  0  0
  1  2  1  0  0  0
  1 31  1  0  0  0
  1 32  1  0  0  0
  1 33  1  0  0  0
  2  3  1  0  0  0
  2  4  1  0  0  0
  3 34  1  0  0  0
  3 35  1  0  0  0
  3 36  1  0  0  0
  4 30  2  0  0  0
  4  5  1  0  0  0
  5  6  2  0  0  0
  5 37  1  0  0  0
  6  7  1  0  0  0
  6 38  1  0  0  0
  7  8  1  0  0  0
  7 29  2  0  0  0
  8  9  1  0  0  0
  8 17  1  0  0  0
  9 10  1  0  0  0
  9 39  1  0  0  0
  9 40  1  0  0  0
 10 16  2  0  0  0
 10 11  1  0  0  0
 11 12  2  0  0  0
 11 41  1  0  0  0
 12 13  1  0  0  0
 12 42  1  0  0  0
 13 14  2  0  0  0
 13 43  1  0  0  0
 14 15  1  0  0  0
 14 16  1  0  0  0
 16 44  1  0  0  0
 17 18  2  0  0  0
 17 19  1  0  0  0
 19 20  1  0  0  0
 19 45  1  0  0  0
 19 46  1  0  0  0
 20 28  1  0  0  0
 20 21  1  0  0  0
 21 22  2  0  0  0
 22 23  1  0  0  0
 23 28  2  0  0  0
 23 24  1  0  0  0
 24 25  2  0  0  0
 24 47  1  0  0  0
 25 26  1  0  0  0
 25 48  1  0  0  0
 26 27  2  0  0  0
 26 49  1  0  0  0
 27 28  1  0  0  0
 27 50  1  0  0  0
 29 30  1  0  0  0
 29 51  1  0  0  0
 30 52  1  0  0  0
M  END
> <r_i_docking_score>
-5.89314312729527

$$$$
ligprep_5.maegz:341
                    3D
 Schrodinger Suite 2020-4.
 56 60  0  0  1  0            999 V2000
    8.3701   -2.8660   22.0673 O   0  0  0  0  0  0
    7.3434   -2.2063   21.9086 C   0  0  0  0  0  0
    6.1314   -2.9918   21.3466 C   0  0  0  0  0  0
    5.9104   -4.2812   21.9810 N   0  0  0  0  0  0
    6.5012   -5.3984   21.5085 N   0  0  0  0  0  0
    6.1410   -6.4503   22.3162 N   0  0  0  0  0  0
    5.3208   -5.9561   23.2899 C   0  0  0  0  0  0
    4.6755   -6.5982   24.3548 C   0  0  0  0  0  0
    3.8898   -5.8255   25.2112 C   0  0  0  0  0  0
    3.7530   -4.4474   25.0234 C   0  0  0  0  0  0
    4.3885   -3.7817   23.9724 C   0  0  0  0  0  0
    5.1653   -4.5631   23.1107 C   0  0  0  0  0  0
    7.2707   -0.8514   22.1292 N   0  0  0  0  0  0
    5.9723   -0.1628   21.9589 C   0  0  0  0  0  0
    5.7023    0.3586   20.5472 C   0  0  0  0  0  0
    4.8630    1.4501   20.2750 C   0  0  0  0  0  0
    4.7965    1.7948   18.9354 C   0  0  0  0  0  0
    5.7613    0.7473   17.9547 S   0  0  0  0  0  0
    6.2734   -0.1118   19.3632 C   0  0  0  0  0  0
    8.4176   -0.0264   22.4041 C   0  0  0  0  0  0
    8.3876    1.3308   22.0367 C   0  0  0  0  0  0
    9.4750    2.1595   22.2439 C   0  0  0  0  0  0
   10.6417    1.6737   22.8250 C   0  0  0  0  0  0
   11.7375    2.5142   22.9419 N   0  0  0  0  0  0
   11.6339    3.9174   23.3854 C   0  0  0  0  0  0
   12.4463    4.8669   22.4824 C   0  0  0  0  0  0
   13.9013    4.4134   22.3405 C   0  0  0  0  0  0
   13.9574    2.9230   21.9506 C   0  0  0  0  0  0
   13.1286    2.0440   22.9016 C   0  0  0  0  0  0
   10.6849    0.3381   23.2333 C   0  0  0  0  0  0
    9.5876   -0.4957   23.0333 C   0  0  0  0  0  0
    6.3670   -3.1754   20.3019 H   0  0  0  0  0  0
    5.1735   -2.4772   21.3305 H   0  0  0  0  0  0
    4.7847   -7.6551   24.5050 H   0  0  0  0  0  0
    3.3823   -6.2996   26.0398 H   0  0  0  0  0  0
    3.1415   -3.8836   25.7134 H   0  0  0  0  0  0
    4.2776   -2.7132   23.8375 H   0  0  0  0  0  0
    5.1699   -0.7912   22.3389 H   0  0  0  0  0  0
    5.9548    0.6732   22.6570 H   0  0  0  0  0  0
    4.3241    1.9837   21.0428 H   0  0  0  0  0  0
    4.2416    2.6026   18.4758 H   0  0  0  0  0  0
    6.9828   -0.9209   19.2475 H   0  0  0  0  0  0
    7.5372    1.7807   21.5507 H   0  0  0  0  0  0
    9.4117    3.1816   21.9078 H   0  0  0  0  0  0
   10.5960    4.2508   23.3881 H   0  0  0  0  0  0
   11.9668    3.9942   24.4169 H   0  0  0  0  0  0
   11.9707    4.9439   21.5083 H   0  0  0  0  0  0
   12.4142    5.8765   22.8942 H   0  0  0  0  0  0
   14.3943    4.5624   23.2978 H   0  0  0  0  0  0
   14.4255    5.0409   21.6193 H   0  0  0  0  0  0
   14.9925    2.5808   21.9126 H   0  0  0  0  0  0
   13.5694    2.7490   20.9523 H   0  0  0  0  0  0
   13.5389    2.0512   23.9051 H   0  0  0  0  0  0
   13.1802    1.0155   22.5400 H   0  0  0  0  0  0
   11.5629   -0.0620   23.7132 H   0  0  0  0  0  0
    9.6783   -1.5063   23.4016 H   0  0  0  0  0  0
  1  2  2  0  0  0
  2  3  1  0  0  0
  2 13  1  0  0  0
  3  4  1  0  0  0
  3 32  1  0  0  0
  3 33  1  0  0  0
  4 12  1  0  0  0
  4  5  1  0  0  0
  5  6  2  0  0  0
  6  7  1  0  0  0
  7 12  2  0  0  0
  7  8  1  0  0  0
  8  9  2  0  0  0
  8 34  1  0  0  0
  9 10  1  0  0  0
  9 35  1  0  0  0
 10 11  2  0  0  0
 10 36  1  0  0  0
 11 12  1  0  0  0
 11 37  1  0  0  0
 13 14  1  0  0  0
 13 20  1  0  0  0
 14 15  1  0  0  0
 14 38  1  0  0  0
 14 39  1  0  0  0
 15 19  2  0  0  0
 15 16  1  0  0  0
 16 17  2  0  0  0
 16 40  1  0  0  0
 17 18  1  0  0  0
 17 41  1  0  0  0
 18 19  1  0  0  0
 19 42  1  0  0  0
 20 31  2  0  0  0
 20 21  1  0  0  0
 21 22  2  0  0  0
 21 43  1  0  0  0
 22 23  1  0  0  0
 22 44  1  0  0  0
 23 24  1  0  0  0
 23 30  2  0  0  0
 24 29  1  0  0  0
 24 25  1  0  0  0
 25 26  1  0  0  0
 25 45  1  0  0  0
 25 46  1  0  0  0
 26 27  1  0  0  0
 26 47  1  0  0  0
 26 48  1  0  0  0
 27 28  1  0  0  0
 27 49  1  0  0  0
 27 50  1  0  0  0
 28 29  1  0  0  0
 28 51  1  0  0  0
 28 52  1  0  0  0
 29 53  1  0  0  0
 29 54  1  0  0  0
 30 31  1  0  0  0
 30 55  1  0  0  0
 31 56  1  0  0  0
M  END
> <r_i_docking_score>
-6.51218210655589

$$$$
ligprep_5.maegz:342
                    3D
 Schrodinger Suite 2020-4.
 57 61  0  0  1  0            999 V2000
    3.1747   -2.1000   25.5563 O   0  0  0  0  0  0
    3.7820   -3.1698   25.6465 C   0  0  0  0  0  0
    3.3014   -4.0861   26.7905 C   0  0  0  0  0  0
    3.0164   -5.4784   26.4688 N   0  0  0  0  0  0
    3.4492   -6.4329   27.3139 N   0  0  0  0  0  0
    3.1129   -7.6566   26.7947 N   0  0  0  0  0  0
    2.4482   -7.4428   25.6256 C   0  0  0  0  0  0
    1.9055   -8.3570   24.7136 C   0  0  0  0  0  0
    1.2884   -7.8468   23.5700 C   0  0  0  0  0  0
    1.2041   -6.4708   23.3445 C   0  0  0  0  0  0
    1.7284   -5.5376   24.2446 C   0  0  0  0  0  0
    2.3567   -6.0495   25.3870 C   0  0  0  0  0  0
    4.8176   -3.4936   24.8026 N   0  0  0  0  0  0
    5.5343   -4.7898   24.8181 C   0  0  0  0  0  0
    6.9483   -4.7420   25.3727 C   0  0  0  0  0  0
    7.2067   -5.3234   26.6148 C   0  0  0  0  0  0
    8.5102   -5.3824   27.0891 C   0  0  0  0  0  0
    9.5486   -4.8512   26.3296 C   0  0  0  0  0  0
    9.2957   -4.2470   25.1046 C   0  0  0  0  0  0
    7.9951   -4.2076   24.6157 C   0  0  0  0  0  0
    5.3335   -2.5210   23.9070 C   0  0  0  0  0  0
    5.7074   -1.2480   24.3581 C   0  0  0  0  0  0
    6.2391   -0.3198   23.4706 C   0  0  0  0  0  0
    6.4145   -0.6441   22.1220 C   0  0  0  0  0  0
    6.9308    0.3118   21.2525 N   0  0  0  0  0  0
    6.3307    1.6554   21.1644 C   0  0  0  0  0  0
    5.2119    1.6879   20.0929 C   0  0  0  0  0  0
    5.7453    1.2863   18.8326 O   0  0  0  0  0  0
    6.3379   -0.0056   18.8749 C   0  0  0  0  0  0
    7.4655   -0.0220   19.9269 C   0  0  0  0  0  0
    6.0762   -1.9325   21.6853 C   0  0  0  0  0  0
    5.5306   -2.8592   22.5641 C   0  0  0  0  0  0
    2.3742   -3.6792   27.1975 H   0  0  0  0  0  0
    4.0366   -4.0332   27.5951 H   0  0  0  0  0  0
    1.9681   -9.4221   24.8934 H   0  0  0  0  0  0
    0.8670   -8.5272   22.8438 H   0  0  0  0  0  0
    0.7191   -6.1174   22.4464 H   0  0  0  0  0  0
    1.6560   -4.4768   24.0542 H   0  0  0  0  0  0
    5.0237   -5.5718   25.3609 H   0  0  0  0  0  0
    5.5831   -5.1940   23.8079 H   0  0  0  0  0  0
    6.4116   -5.7668   27.1972 H   0  0  0  0  0  0
    8.7191   -5.8651   28.0292 H   0  0  0  0  0  0
   10.5655   -4.9261   26.6807 H   0  0  0  0  0  0
   10.1103   -3.8391   24.5231 H   0  0  0  0  0  0
    7.8163   -3.7772   23.6431 H   0  0  0  0  0  0
    5.5891   -0.9732   25.3957 H   0  0  0  0  0  0
    6.5178    0.6561   23.8395 H   0  0  0  0  0  0
    5.9399    1.9840   22.1278 H   0  0  0  0  0  0
    7.1087    2.3744   20.9051 H   0  0  0  0  0  0
    4.8124    2.6978   19.9972 H   0  0  0  0  0  0
    4.3741    1.0409   20.3680 H   0  0  0  0  0  0
    6.7612   -0.2362   17.9079 H   0  0  0  0  0  0
    5.5740   -0.7584   19.0706 H   0  0  0  0  0  0
    8.2256    0.7075   19.6593 H   0  0  0  0  0  0
    7.9922   -0.9776   19.9495 H   0  0  0  0  0  0
    6.2187   -2.2279   20.6582 H   0  0  0  0  0  0
    5.2636   -3.8369   22.1927 H   0  0  0  0  0  0
  1  2  2  0  0  0
  2  3  1  0  0  0
  2 13  1  0  0  0
  3  4  1  0  0  0
  3 33  1  0  0  0
  3 34  1  0  0  0
  4 12  1  0  0  0
  4  5  1  0  0  0
  5  6  2  0  0  0
  6  7  1  0  0  0
  7 12  2  0  0  0
  7  8  1  0  0  0
  8  9  2  0  0  0
  8 35  1  0  0  0
  9 10  1  0  0  0
  9 36  1  0  0  0
 10 11  2  0  0  0
 10 37  1  0  0  0
 11 12  1  0  0  0
 11 38  1  0  0  0
 13 14  1  0  0  0
 13 21  1  0  0  0
 14 15  1  0  0  0
 14 39  1  0  0  0
 14 40  1  0  0  0
 15 20  2  0  0  0
 15 16  1  0  0  0
 16 17  2  0  0  0
 16 41  1  0  0  0
 17 18  1  0  0  0
 17 42  1  0  0  0
 18 19  2  0  0  0
 18 43  1  0  0  0
 19 20  1  0  0  0
 19 44  1  0  0  0
 20 45  1  0  0  0
 21 32  2  0  0  0
 21 22  1  0  0  0
 22 23  2  0  0  0
 22 46  1  0  0  0
 23 24  1  0  0  0
 23 47  1  0  0  0
 24 25  1  0  0  0
 24 31  2  0  0  0
 25 30  1  0  0  0
 25 26  1  0  0  0
 26 27  1  0  0  0
 26 48  1  0  0  0
 26 49  1  0  0  0
 27 28  1  0  0  0
 27 50  1  0  0  0
 27 51  1  0  0  0
 28 29  1  0  0  0
 29 30  1  0  0  0
 29 52  1  0  0  0
 29 53  1  0  0  0
 30 54  1  0  0  0
 30 55  1  0  0  0
 31 32  1  0  0  0
 31 56  1  0  0  0
 32 57  1  0  0  0
M  END
> <r_i_docking_score>
-3.68840619644503

$$$$
ligprep_5.maegz:343
                    3D
 Schrodinger Suite 2020-4.
 48 51  0  0  1  0            999 V2000
    9.3498   -4.9603   26.7189 C   0  0  0  0  0  0
    7.8789   -5.1217   26.3619 C   0  0  0  0  0  0
    7.0120   -5.6525   27.3244 C   0  0  0  0  0  0
    5.6805   -5.8927   26.9807 C   0  0  0  0  0  0
    5.1793   -5.6345   25.7479 N   0  0  0  0  0  0
    6.0204   -5.1076   24.8231 C   0  0  0  0  0  0
    7.3645   -4.8189   25.0829 C   0  0  0  0  0  0
    8.1294   -4.2822   24.0363 N   0  0  0  0  0  0
    8.8227   -3.1268   24.0839 C   0  0  0  0  0  0
    8.8567   -2.3859   25.0689 O   0  0  0  0  0  0
    9.6129   -2.7689   22.8142 C   0  0  0  0  0  0
    9.6847   -1.2669   22.5666 C   0  0  0  0  0  0
   10.8437   -0.5461   22.8647 C   0  0  0  0  0  0
   10.8652    0.8385   22.7086 C   0  0  0  0  0  0
   12.2948    1.7224   23.1044 Cl  0  0  0  0  0  0
    9.7261    1.5067   22.2520 C   0  0  0  0  0  0
    8.5489    0.8015   21.9529 C   0  0  0  0  0  0
    7.2954    1.5011   21.5488 C   0  0  0  0  0  0
    6.4026    0.9200   20.6350 C   0  0  0  0  0  0
    5.2033    1.5501   20.3071 C   0  0  0  0  0  0
    4.8799    2.7795   20.8878 C   0  0  0  0  0  0
    3.6040    3.5468   20.5282 C   0  0  1  0  0  0
    3.0723    3.4878   19.1023 C   0  0  0  0  0  0
    2.2585    2.9262   20.2299 C   0  0  0  0  0  0
    2.1246    1.6063   20.3083 F   0  0  0  0  0  0
    1.1592    3.5935   20.5801 F   0  0  0  0  0  0
    5.7653    3.3658   21.7926 C   0  0  0  0  0  0
    6.9621    2.7357   22.1159 C   0  0  0  0  0  0
    8.5544   -0.5900   22.1051 C   0  0  0  0  0  0
    9.5660   -3.9424   27.0496 H   0  0  0  0  0  0
    9.6338   -5.6522   27.5096 H   0  0  0  0  0  0
    9.9899   -5.2017   25.8666 H   0  0  0  0  0  0
    7.3688   -5.9089   28.3116 H   0  0  0  0  0  0
    4.9952   -6.3234   27.6970 H   0  0  0  0  0  0
    5.5867   -4.9069   23.8537 H   0  0  0  0  0  0
    8.0611   -4.7508   23.1455 H   0  0  0  0  0  0
   10.6207   -3.1696   22.9310 H   0  0  0  0  0  0
    9.1734   -3.2523   21.9394 H   0  0  0  0  0  0
   11.7196   -1.0577   23.2387 H   0  0  0  0  0  0
    9.7599    2.5816   22.1424 H   0  0  0  0  0  0
    6.6328   -0.0277   20.1698 H   0  0  0  0  0  0
    4.5368    1.0804   19.5993 H   0  0  0  0  0  0
    3.5668    4.5428   20.9725 H   0  0  0  0  0  0
    2.7697    4.4252   18.6321 H   0  0  0  0  0  0
    3.5485    2.8216   18.3829 H   0  0  0  0  0  0
    5.5380    4.3250   22.2344 H   0  0  0  0  0  0
    7.6218    3.2102   22.8271 H   0  0  0  0  0  0
    7.6540   -1.1548   21.9130 H   0  0  0  0  0  0
  1  2  1  0  0  0
  1 30  1  0  0  0
  1 31  1  0  0  0
  1 32  1  0  0  0
  2  7  2  0  0  0
  2  3  1  0  0  0
  3  4  2  0  0  0
  3 33  1  0  0  0
  4  5  1  0  0  0
  4 34  1  0  0  0
  5  6  2  0  0  0
  6  7  1  0  0  0
  6 35  1  0  0  0
  7  8  1  0  0  0
  8  9  1  0  0  0
  8 36  1  0  0  0
  9 10  2  0  0  0
  9 11  1  0  0  0
 11 12  1  0  0  0
 11 37  1  0  0  0
 11 38  1  0  0  0
 12 29  2  0  0  0
 12 13  1  0  0  0
 13 14  2  0  0  0
 13 39  1  0  0  0
 14 15  1  0  0  0
 14 16  1  0  0  0
 16 17  2  0  0  0
 16 40  1  0  0  0
 17 18  1  0  0  0
 17 29  1  0  0  0
 18 28  2  0  0  0
 18 19  1  0  0  0
 19 20  2  0  0  0
 19 41  1  0  0  0
 20 21  1  0  0  0
 20 42  1  0  0  0
 21 22  1  0  0  0
 21 27  2  0  0  0
 22 24  1  0  0  0
 22 23  1  0  0  0
 22 43  1  0  0  0
 23 24  1  0  0  0
 23 44  1  0  0  0
 23 45  1  0  0  0
 24 25  1  0  0  0
 24 26  1  0  0  0
 27 28  1  0  0  0
 27 46  1  0  0  0
 28 47  1  0  0  0
 29 48  1  0  0  0
M  END
> <r_i_docking_score>
-4.876580435017

$$$$
ligprep_5.maegz:344
                    3D
 Schrodinger Suite 2020-4.
 51 53  0  0  1  0            999 V2000
   12.5465   -2.1423   21.9289 C   0  0  0  0  0  0
   11.9630   -0.9188   22.3580 O   0  0  0  0  0  0
   12.7327    0.1416   22.7079 C   0  0  0  0  0  0
   13.9673    0.1191   22.7062 O   0  0  0  0  0  0
   11.9252    1.3773   22.9662 C   0  0  0  0  0  0
   10.5531    1.3206   23.2400 C   0  0  0  0  0  0
    9.8228    2.4884   23.4361 C   0  0  0  0  0  0
   10.4310    3.7465   23.3640 C   0  0  0  0  0  0
    9.5895    4.9681   23.5268 C   0  0  0  0  0  0
    9.9449    5.9838   24.4235 C   0  0  0  0  0  0
    9.1343    7.1075   24.5905 C   0  0  0  0  0  0
    9.5704    8.3304   25.7255 Cl  0  0  0  0  0  0
    7.9597    7.2346   23.8528 C   0  0  0  0  0  0
    7.5914    6.2411   22.9438 C   0  0  0  0  0  0
    6.2850    6.3528   22.1625 C   0  0  0  0  0  0
    5.1419    5.5291   22.7882 C   0  0  0  0  0  0
    5.0628    5.4038   24.0119 O   0  0  0  0  0  0
    4.2681    5.0019   21.9079 N   0  0  0  0  0  0
    3.1025    4.2386   22.1384 C   0  0  0  0  0  0
    2.4061    4.2413   23.3614 C   0  0  0  0  0  0
    1.2640    3.5381   23.5724 N   0  0  0  0  0  0
    0.7703    2.8090   22.5428 C   0  0  0  0  0  0
    1.3879    2.7473   21.2941 C   0  0  0  0  0  0
    2.5660    3.4718   21.0839 C   0  0  0  0  0  0
    3.2278    3.3938   19.7140 C   0  0  0  0  0  0
    8.4031    5.1137   22.7932 C   0  0  0  0  0  0
   11.8145    3.8220   23.1060 C   0  0  0  0  0  0
   12.3955    5.0771   23.0315 O   0  0  0  0  0  0
   13.7068    5.2048   22.4921 C   0  0  0  0  0  0
   12.5421    2.6325   22.9169 C   0  0  0  0  0  0
   11.7601   -2.8526   21.6765 H   0  0  0  0  0  0
   13.1610   -1.9895   21.0416 H   0  0  0  0  0  0
   13.1676   -2.5848   22.7079 H   0  0  0  0  0  0
   10.0335    0.3737   23.2967 H   0  0  0  0  0  0
    8.7641    2.4120   23.6379 H   0  0  0  0  0  0
   10.8499    5.8937   25.0071 H   0  0  0  0  0  0
    7.3285    8.0980   23.9957 H   0  0  0  0  0  0
    6.4579    6.0625   21.1217 H   0  0  0  0  0  0
    5.9575    7.3922   22.1373 H   0  0  0  0  0  0
    4.5050    5.1468   20.9236 H   0  0  0  0  0  0
    2.7339    4.8285   24.2027 H   0  0  0  0  0  0
   -0.1411    2.2612   22.7343 H   0  0  0  0  0  0
    0.9566    2.1489   20.5050 H   0  0  0  0  0  0
    4.2844    3.1464   19.8160 H   0  0  0  0  0  0
    2.7745    2.6371   19.0737 H   0  0  0  0  0  0
    3.1692    4.3543   19.2043 H   0  0  0  0  0  0
    8.1089    4.3461   22.0917 H   0  0  0  0  0  0
   13.9533    6.2587   22.3763 H   0  0  0  0  0  0
   14.4554    4.7473   23.1426 H   0  0  0  0  0  0
   13.7698    4.7450   21.5080 H   0  0  0  0  0  0
   13.6021    2.6780   22.7144 H   0  0  0  0  0  0
  1  2  1  0  0  0
  1 31  1  0  0  0
  1 32  1  0  0  0
  1 33  1  0  0  0
  2  3  1  0  0  0
  3  4  2  0  0  0
  3  5  1  0  0  0
  5 30  2  0  0  0
  5  6  1  0  0  0
  6  7  2  0  0  0
  6 34  1  0  0  0
  7  8  1  0  0  0
  7 35  1  0  0  0
  8  9  1  0  0  0
  8 27  2  0  0  0
  9 26  2  0  0  0
  9 10  1  0  0  0
 10 11  2  0  0  0
 10 36  1  0  0  0
 11 12  1  0  0  0
 11 13  1  0  0  0
 13 14  2  0  0  0
 13 37  1  0  0  0
 14 15  1  0  0  0
 14 26  1  0  0  0
 15 16  1  0  0  0
 15 38  1  0  0  0
 15 39  1  0  0  0
 16 17  2  0  0  0
 16 18  1  0  0  0
 18 19  1  0  0  0
 18 40  1  0  0  0
 19 24  2  0  0  0
 19 20  1  0  0  0
 20 21  2  0  0  0
 20 41  1  0  0  0
 21 22  1  0  0  0
 22 23  2  0  0  0
 22 42  1  0  0  0
 23 24  1  0  0  0
 23 43  1  0  0  0
 24 25  1  0  0  0
 25 44  1  0  0  0
 25 45  1  0  0  0
 25 46  1  0  0  0
 26 47  1  0  0  0
 27 28  1  0  0  0
 27 30  1  0  0  0
 28 29  1  0  0  0
 29 48  1  0  0  0
 29 49  1  0  0  0
 29 50  1  0  0  0
 30 51  1  0  0  0
M  END
> <r_i_docking_score>
-5.54668423741162

$$$$
ligprep_5.maegz:345
                    3D
 Schrodinger Suite 2020-4.
 47 49  0  0  1  0            999 V2000
    3.5772   -2.2812   25.3652 C   0  0  0  0  0  0
    4.8847   -2.1206   24.5652 C   0  0  0  0  0  0
    5.2817   -3.3091   23.6770 C   0  0  0  0  0  0
    5.0019   -4.6061   24.1262 C   0  0  0  0  0  0
    5.3349   -5.7173   23.3626 C   0  0  0  0  0  0
    5.0536   -6.9535   23.8282 F   0  0  0  0  0  0
    5.9602   -5.5524   22.1327 C   0  0  0  0  0  0
    6.2604   -4.2700   21.6769 C   0  0  0  0  0  0
    5.9409   -3.1324   22.4338 C   0  0  0  0  0  0
    6.3254   -1.7891   21.9019 C   0  0  0  0  0  0
    5.9733   -1.3931   20.6020 C   0  0  0  0  0  0
    6.3014   -0.1221   20.1279 C   0  0  0  0  0  0
    5.8990    0.3474   18.5183 Cl  0  0  0  0  0  0
    6.9664    0.7772   20.9551 C   0  0  0  0  0  0
    7.3593    0.3960   22.2419 C   0  0  0  0  0  0
    8.0889    1.3765   23.1635 C   0  0  0  0  0  0
    9.4370    1.8836   22.6251 C   0  0  0  0  0  0
    9.8346    1.5499   21.5079 O   0  0  0  0  0  0
   10.1023    2.7318   23.4351 N   0  0  0  0  0  0
   11.2915    3.3906   23.0911 C   0  0  0  0  0  0
   11.2802    4.7898   23.1095 C   0  0  0  0  0  0
   12.3432    5.5466   22.7399 N   0  0  0  0  0  0
   13.4643    4.9036   22.3347 C   0  0  0  0  0  0
   13.5694    3.5142   22.3080 C   0  0  0  0  0  0
   12.4839    2.7347   22.7146 C   0  0  0  0  0  0
   12.6630    1.2235   22.8026 C   0  0  0  0  0  0
    7.0529   -0.8904   22.6941 C   0  0  0  0  0  0
    3.3123   -1.3452   25.8563 H   0  0  0  0  0  0
    2.7455   -2.5556   24.7163 H   0  0  0  0  0  0
    3.6622   -3.0341   26.1481 H   0  0  0  0  0  0
    5.7050   -1.9123   25.2520 H   0  0  0  0  0  0
    4.7685   -1.2305   23.9500 H   0  0  0  0  0  0
    4.5268   -4.7766   25.0796 H   0  0  0  0  0  0
    6.2191   -6.4182   21.5424 H   0  0  0  0  0  0
    6.7679   -4.1638   20.7296 H   0  0  0  0  0  0
    5.4467   -2.0722   19.9475 H   0  0  0  0  0  0
    7.1958    1.7660   20.5863 H   0  0  0  0  0  0
    8.2596    0.9223   24.1404 H   0  0  0  0  0  0
    7.4342    2.2332   23.3276 H   0  0  0  0  0  0
    9.6276    3.0577   24.2639 H   0  0  0  0  0  0
   10.3884    5.3345   23.3863 H   0  0  0  0  0  0
   14.3008    5.5258   22.0520 H   0  0  0  0  0  0
   14.4974    3.0473   22.0123 H   0  0  0  0  0  0
   12.2795    0.7257   21.9121 H   0  0  0  0  0  0
   13.7144    0.9533   22.9259 H   0  0  0  0  0  0
   12.1409    0.8261   23.6742 H   0  0  0  0  0  0
    7.3602   -1.1874   23.6866 H   0  0  0  0  0  0
  1  2  1  0  0  0
  1 28  1  0  0  0
  1 29  1  0  0  0
  1 30  1  0  0  0
  2  3  1  0  0  0
  2 31  1  0  0  0
  2 32  1  0  0  0
  3  9  2  0  0  0
  3  4  1  0  0  0
  4  5  2  0  0  0
  4 33  1  0  0  0
  5  6  1  0  0  0
  5  7  1  0  0  0
  7  8  2  0  0  0
  7 34  1  0  0  0
  8  9  1  0  0  0
  8 35  1  0  0  0
  9 10  1  0  0  0
 10 27  2  0  0  0
 10 11  1  0  0  0
 11 12  2  0  0  0
 11 36  1  0  0  0
 12 13  1  0  0  0
 12 14  1  0  0  0
 14 15  2  0  0  0
 14 37  1  0  0  0
 15 16  1  0  0  0
 15 27  1  0  0  0
 16 17  1  0  0  0
 16 38  1  0  0  0
 16 39  1  0  0  0
 17 18  2  0  0  0
 17 19  1  0  0  0
 19 20  1  0  0  0
 19 40  1  0  0  0
 20 25  2  0  0  0
 20 21  1  0  0  0
 21 22  2  0  0  0
 21 41  1  0  0  0
 22 23  1  0  0  0
 23 24  2  0  0  0
 23 42  1  0  0  0
 24 25  1  0  0  0
 24 43  1  0  0  0
 25 26  1  0  0  0
 26 44  1  0  0  0
 26 45  1  0  0  0
 26 46  1  0  0  0
 27 47  1  0  0  0
M  END
> <r_i_docking_score>
-6.06009061835999

$$$$
ligprep_5.maegz:346
                    3D
 Schrodinger Suite 2020-4.
 52 55  0  0  1  0            999 V2000
    2.8356   -4.5915   25.3037 C   0  0  0  0  0  0
    2.0713   -5.5306   24.3785 C   0  0  0  0  0  0
    0.6886   -5.6610   24.5547 C   0  0  0  0  0  0
   -0.0153   -6.5758   23.7670 C   0  0  0  0  0  0
    0.5823   -7.3631   22.8400 N   0  0  0  0  0  0
    1.9218   -7.2314   22.6721 C   0  0  0  0  0  0
    2.7037   -6.3206   23.3924 C   0  0  0  0  0  0
    4.0767   -6.2999   23.1082 N   0  0  0  0  0  0
    4.8126   -5.2169   22.7866 C   0  0  0  0  0  0
    4.3695   -4.0697   22.7080 O   0  0  0  0  0  0
    6.2990   -5.4638   22.5094 C   0  0  0  0  0  0
    7.1515   -4.8032   23.5848 C   0  0  0  0  0  0
    7.0735   -5.2528   24.9029 C   0  0  0  0  0  0
    7.8268   -4.6512   25.8983 C   0  0  0  0  0  0
    7.7179   -5.2525   27.5079 Cl  0  0  0  0  0  0
    8.6362   -3.5609   25.5935 C   0  0  0  0  0  0
    8.7141   -3.0626   24.2823 C   0  0  0  0  0  0
    9.5207   -1.8483   23.9649 C   0  0  0  0  0  0
   10.1622   -1.7117   22.7252 C   0  0  0  0  0  0
   10.8581   -0.5480   22.4133 C   0  0  0  0  0  0
   10.9349    0.4968   23.3389 C   0  0  0  0  0  0
   11.6529    1.7951   22.9635 C   0  0  1  0  0  0
   13.1674    1.5725   22.8004 C   0  0  0  0  0  0
   11.0671    2.7471   21.9082 C   0  0  0  0  0  0
   10.7575    3.7230   23.0392 C   0  0  0  0  0  0
   11.4849    2.8546   24.0033 O   0  0  0  0  0  0
   10.3231    0.3544   24.5856 C   0  0  0  0  0  0
    9.6200   -0.8033   24.8913 C   0  0  0  0  0  0
    7.9718   -3.7127   23.2817 C   0  0  0  0  0  0
    3.8133   -5.0063   25.5590 H   0  0  0  0  0  0
    2.9818   -3.6167   24.8321 H   0  0  0  0  0  0
    2.3089   -4.4511   26.2486 H   0  0  0  0  0  0
    0.1670   -5.0764   25.2968 H   0  0  0  0  0  0
   -1.0832   -6.6954   23.8816 H   0  0  0  0  0  0
    2.3659   -7.8687   21.9185 H   0  0  0  0  0  0
    4.4975   -7.2028   22.9342 H   0  0  0  0  0  0
    6.5304   -6.5304   22.4784 H   0  0  0  0  0  0
    6.5351   -5.0675   21.5207 H   0  0  0  0  0  0
    6.4030   -6.0528   25.1652 H   0  0  0  0  0  0
    9.1914   -3.0943   26.3918 H   0  0  0  0  0  0
   10.1170   -2.5020   21.9894 H   0  0  0  0  0  0
   11.3247   -0.4583   21.4433 H   0  0  0  0  0  0
   13.3903    0.9696   21.9197 H   0  0  0  0  0  0
   13.7071    2.5143   22.7006 H   0  0  0  0  0  0
   13.5696    1.0535   23.6703 H   0  0  0  0  0  0
   11.7854    3.1491   21.1913 H   0  0  0  0  0  0
   10.1950    2.3499   21.3893 H   0  0  0  0  0  0
   11.2584    4.6898   22.9777 H   0  0  0  0  0  0
    9.7097    3.7964   23.3359 H   0  0  0  0  0  0
   10.3618    1.1476   25.3185 H   0  0  0  0  0  0
    9.1315   -0.8670   25.8528 H   0  0  0  0  0  0
    7.9977   -3.3422   22.2668 H   0  0  0  0  0  0
  1  2  1  0  0  0
  1 30  1  0  0  0
  1 31  1  0  0  0
  1 32  1  0  0  0
  2  7  2  0  0  0
  2  3  1  0  0  0
  3  4  2  0  0  0
  3 33  1  0  0  0
  4  5  1  0  0  0
  4 34  1  0  0  0
  5  6  2  0  0  0
  6  7  1  0  0  0
  6 35  1  0  0  0
  7  8  1  0  0  0
  8  9  1  0  0  0
  8 36  1  0  0  0
  9 10  2  0  0  0
  9 11  1  0  0  0
 11 12  1  0  0  0
 11 37  1  0  0  0
 11 38  1  0  0  0
 12 29  2  0  0  0
 12 13  1  0  0  0
 13 14  2  0  0  0
 13 39  1  0  0  0
 14 15  1  0  0  0
 14 16  1  0  0  0
 16 17  2  0  0  0
 16 40  1  0  0  0
 17 18  1  0  0  0
 17 29  1  0  0  0
 18 28  2  0  0  0
 18 19  1  0  0  0
 19 20  2  0  0  0
 19 41  1  0  0  0
 20 21  1  0  0  0
 20 42  1  0  0  0
 21 22  1  0  0  0
 21 27  2  0  0  0
 22 26  1  0  0  0
 22 23  1  0  0  0
 22 24  1  0  0  0
 23 43  1  0  0  0
 23 44  1  0  0  0
 23 45  1  0  0  0
 24 25  1  0  0  0
 24 46  1  0  0  0
 24 47  1  0  0  0
 25 26  1  0  0  0
 25 48  1  0  0  0
 25 49  1  0  0  0
 27 28  1  0  0  0
 27 50  1  0  0  0
 28 51  1  0  0  0
 29 52  1  0  0  0
M  END
> <r_i_docking_score>
-6.40612292337192

$$$$
ligprep_5.maegz:347
                    3D
 Schrodinger Suite 2020-4.
 44 46  0  0  1  0            999 V2000
    7.6719   -6.1233   22.6803 C   0  0  0  0  0  0
    6.3672   -5.4797   23.1240 C   0  0  0  0  0  0
    5.1651   -6.0247   22.6680 C   0  0  0  0  0  0
    3.9585   -5.4883   23.1166 C   0  0  0  0  0  0
    3.8944   -4.4524   23.9892 N   0  0  0  0  0  0
    5.0646   -3.9255   24.4315 C   0  0  0  0  0  0
    6.3163   -4.3907   24.0176 C   0  0  0  0  0  0
    7.4568   -3.7734   24.5460 N   0  0  0  0  0  0
    8.3787   -3.1040   23.8253 C   0  0  0  0  0  0
    8.2958   -2.9175   22.6095 O   0  0  0  0  0  0
    9.5702   -2.5754   24.6358 C   0  0  0  0  0  0
   10.5047   -1.6518   23.8557 C   0  0  0  0  0  0
   11.4924   -2.1836   23.0268 C   0  0  0  0  0  0
   12.3325   -1.3409   22.3082 C   0  0  0  0  0  0
   13.5687   -2.0073   21.3025 Cl  0  0  0  0  0  0
   12.1773    0.0403   22.4068 C   0  0  0  0  0  0
   11.1805    0.6170   23.2137 C   0  0  0  0  0  0
   10.9756    2.1082   23.3002 C   0  0  0  0  0  0
    9.7106    2.6205   23.6418 C   0  0  0  0  0  0
    9.4750    3.9887   23.7492 C   0  0  0  0  0  0
   10.5013    4.8983   23.5078 C   0  0  0  0  0  0
   10.2400    6.3898   23.6247 C   0  0  0  0  0  0
   11.7631    4.4225   23.1462 C   0  0  0  0  0  0
   12.7702    5.2957   22.8998 F   0  0  0  0  0  0
   11.9973    3.0481   23.0415 C   0  0  0  0  0  0
   13.2466    2.6543   22.7077 F   0  0  0  0  0  0
   10.3598   -0.2642   23.9418 C   0  0  0  0  0  0
    8.1387   -5.5222   21.9015 H   0  0  0  0  0  0
    8.3688   -6.2009   23.5160 H   0  0  0  0  0  0
    7.5196   -7.1363   22.3019 H   0  0  0  0  0  0
    5.1685   -6.8528   21.9772 H   0  0  0  0  0  0
    3.0172   -5.8965   22.7777 H   0  0  0  0  0  0
    4.9791   -3.0997   25.1226 H   0  0  0  0  0  0
    7.5284   -3.7453   25.5518 H   0  0  0  0  0  0
    9.1917   -2.0568   25.5169 H   0  0  0  0  0  0
   10.1364   -3.4405   24.9824 H   0  0  0  0  0  0
   11.6128   -3.2524   22.9435 H   0  0  0  0  0  0
   12.8372    0.6487   21.8138 H   0  0  0  0  0  0
    8.8739    1.9629   23.8160 H   0  0  0  0  0  0
    8.4871    4.3368   24.0130 H   0  0  0  0  0  0
   10.3647    6.8689   22.6546 H   0  0  0  0  0  0
    9.2361    6.6072   23.9924 H   0  0  0  0  0  0
   10.9587    6.8412   24.3095 H   0  0  0  0  0  0
    9.5943    0.1204   24.5981 H   0  0  0  0  0  0
  1  2  1  0  0  0
  1 28  1  0  0  0
  1 29  1  0  0  0
  1 30  1  0  0  0
  2  7  2  0  0  0
  2  3  1  0  0  0
  3  4  2  0  0  0
  3 31  1  0  0  0
  4  5  1  0  0  0
  4 32  1  0  0  0
  5  6  2  0  0  0
  6  7  1  0  0  0
  6 33  1  0  0  0
  7  8  1  0  0  0
  8  9  1  0  0  0
  8 34  1  0  0  0
  9 10  2  0  0  0
  9 11  1  0  0  0
 11 12  1  0  0  0
 11 35  1  0  0  0
 11 36  1  0  0  0
 12 27  2  0  0  0
 12 13  1  0  0  0
 13 14  2  0  0  0
 13 37  1  0  0  0
 14 15  1  0  0  0
 14 16  1  0  0  0
 16 17  2  0  0  0
 16 38  1  0  0  0
 17 18  1  0  0  0
 17 27  1  0  0  0
 18 25  2  0  0  0
 18 19  1  0  0  0
 19 20  2  0  0  0
 19 39  1  0  0  0
 20 21  1  0  0  0
 20 40  1  0  0  0
 21 22  1  0  0  0
 21 23  2  0  0  0
 22 41  1  0  0  0
 22 42  1  0  0  0
 22 43  1  0  0  0
 23 24  1  0  0  0
 23 25  1  0  0  0
 25 26  1  0  0  0
 27 44  1  0  0  0
M  END
> <r_i_docking_score>
-6.69847760402252

$$$$
ligprep_5.maegz:348
                    3D
 Schrodinger Suite 2020-4.
 44 46  0  0  1  0            999 V2000
    9.5443    2.8469   24.0278 C   0  0  0  0  0  0
   10.9131    3.3942   23.6428 C   0  0  0  0  0  0
   11.1602    4.7583   23.8441 C   0  0  0  0  0  0
   12.3683    5.3038   23.4080 C   0  0  0  0  0  0
   13.3226    4.5738   22.7824 N   0  0  0  0  0  0
   13.0835    3.2520   22.5984 C   0  0  0  0  0  0
   11.9148    2.6113   23.0244 C   0  0  0  0  0  0
   11.7955    1.2494   22.7078 N   0  0  0  0  0  0
   11.4120    0.2376   23.5074 C   0  0  0  0  0  0
   11.1695    0.3470   24.7075 O   0  0  0  0  0  0
   11.2823   -1.1323   22.8282 C   0  0  0  0  0  0
    9.8300   -1.4883   22.5145 C   0  0  0  0  0  0
    9.2477   -2.6204   23.0942 C   0  0  0  0  0  0
    7.9346   -2.9762   22.7849 C   0  0  0  0  0  0
    7.2387   -4.3967   23.4747 Cl  0  0  0  0  0  0
    7.1870   -2.1891   21.9098 C   0  0  0  0  0  0
    7.7529   -1.0530   21.3290 C   0  0  0  0  0  0
    6.9387   -0.2228   20.4084 C   0  0  0  0  0  0
    6.7289   -0.4261   19.0393 C   0  0  0  0  0  0
    5.9222    0.4592   18.5089 N   0  0  0  0  0  0
    5.6071    1.2752   19.5215 N   0  0  0  0  0  0
    4.6495    2.3426   19.2732 C   0  0  0  0  0  0
    6.1917    0.9116   20.7163 C   0  0  0  0  0  0
    5.9731    1.6733   22.0112 C   0  0  0  0  0  0
    6.3697    0.9857   23.0824 F   0  0  0  0  0  0
    6.6115    2.8428   22.0066 F   0  0  0  0  0  0
    9.0738   -0.7096   21.6263 C   0  0  0  0  0  0
    9.5683    2.4104   25.0264 H   0  0  0  0  0  0
    8.7844    3.6292   24.0078 H   0  0  0  0  0  0
    9.2090    2.0886   23.3200 H   0  0  0  0  0  0
   10.4185    5.3912   24.3089 H   0  0  0  0  0  0
   12.5842    6.3531   23.5446 H   0  0  0  0  0  0
   13.8699    2.7043   22.0985 H   0  0  0  0  0  0
   12.1261    0.9937   21.7911 H   0  0  0  0  0  0
   11.8515   -1.1652   21.8976 H   0  0  0  0  0  0
   11.7321   -1.8824   23.4803 H   0  0  0  0  0  0
    9.8184   -3.2400   23.7708 H   0  0  0  0  0  0
    6.1672   -2.4604   21.6804 H   0  0  0  0  0  0
    7.1560   -1.2193   18.4416 H   0  0  0  0  0  0
    3.6381    1.9406   19.3418 H   0  0  0  0  0  0
    4.7718    3.1376   20.0070 H   0  0  0  0  0  0
    4.8013    2.7646   18.2807 H   0  0  0  0  0  0
    4.9187    1.8963   22.1761 H   0  0  0  0  0  0
    9.5091    0.1651   21.1657 H   0  0  0  0  0  0
  1  2  1  0  0  0
  1 28  1  0  0  0
  1 29  1  0  0  0
  1 30  1  0  0  0
  2  7  2  0  0  0
  2  3  1  0  0  0
  3  4  2  0  0  0
  3 31  1  0  0  0
  4  5  1  0  0  0
  4 32  1  0  0  0
  5  6  2  0  0  0
  6  7  1  0  0  0
  6 33  1  0  0  0
  7  8  1  0  0  0
  8  9  1  0  0  0
  8 34  1  0  0  0
  9 10  2  0  0  0
  9 11  1  0  0  0
 11 12  1  0  0  0
 11 35  1  0  0  0
 11 36  1  0  0  0
 12 27  2  0  0  0
 12 13  1  0  0  0
 13 14  2  0  0  0
 13 37  1  0  0  0
 14 15  1  0  0  0
 14 16  1  0  0  0
 16 17  2  0  0  0
 16 38  1  0  0  0
 17 18  1  0  0  0
 17 27  1  0  0  0
 18 23  2  0  0  0
 18 19  1  0  0  0
 19 20  2  0  0  0
 19 39  1  0  0  0
 20 21  1  0  0  0
 21 22  1  0  0  0
 21 23  1  0  0  0
 22 40  1  0  0  0
 22 41  1  0  0  0
 22 42  1  0  0  0
 23 24  1  0  0  0
 24 25  1  0  0  0
 24 26  1  0  0  0
 24 43  1  0  0  0
 27 44  1  0  0  0
M  END
> <r_i_docking_score>
-6.1330549149421

$$$$
ligprep_5.maegz:349
                    3D
 Schrodinger Suite 2020-4.
 48 50  0  0  1  0            999 V2000
    8.4518   -5.0182   24.8847 C   0  0  0  0  0  0
    7.6398   -4.6347   23.6530 C   0  0  0  0  0  0
    7.1352   -5.6530   22.8355 C   0  0  0  0  0  0
    6.3162   -5.3194   21.7581 C   0  0  0  0  0  0
    5.9703   -4.0410   21.4640 N   0  0  0  0  0  0
    6.4761   -3.0543   22.2470 C   0  0  0  0  0  0
    7.3273   -3.2952   23.3324 C   0  0  0  0  0  0
    7.7824   -2.1836   24.0601 N   0  0  0  0  0  0
    9.0735   -1.8743   24.3009 C   0  0  0  0  0  0
   10.0321   -2.5288   23.8909 O   0  0  0  0  0  0
    9.3314   -0.6059   25.1226 C   0  0  0  0  0  0
    9.9668    0.5099   24.2956 C   0  0  0  0  0  0
   11.2494    0.3774   23.7494 C   0  0  0  0  0  0
   11.8027    1.4066   22.9868 C   0  0  0  0  0  0
   13.3825    1.2272   22.3110 Cl  0  0  0  0  0  0
   11.0781    2.5794   22.7712 C   0  0  0  0  0  0
    9.8059    2.7374   23.3353 C   0  0  0  0  0  0
    9.0062    3.9666   23.1872 C   0  0  0  0  0  0
    9.3752    5.2585   23.3730 C   0  0  0  0  0  0
    8.3498    6.3097   23.1280 C   0  0  0  0  0  0
    7.6593    6.3465   21.9084 C   0  0  0  0  0  0
    6.6683    7.2976   21.6832 C   0  0  0  0  0  0
    6.3578    8.2194   22.6778 C   0  0  0  0  0  0
    7.0218    8.1877   23.9018 C   0  0  0  0  0  0
    8.0088    7.2315   24.1270 C   0  0  0  0  0  0
   10.7901    5.7040   23.7928 C   0  0  0  0  0  0
   10.7649    6.8035   24.5406 F   0  0  0  0  0  0
   11.4038    4.7778   24.5253 F   0  0  0  0  0  0
   11.5240    5.9438   22.7080 F   0  0  0  0  0  0
    9.2573    1.6934   24.0826 C   0  0  0  0  0  0
    8.2853   -6.0527   25.1813 H   0  0  0  0  0  0
    9.5177   -4.8767   24.7081 H   0  0  0  0  0  0
    8.1653   -4.4015   25.7362 H   0  0  0  0  0  0
    7.3621   -6.6891   23.0366 H   0  0  0  0  0  0
    5.9146   -6.0921   21.1188 H   0  0  0  0  0  0
    6.1949   -2.0469   21.9748 H   0  0  0  0  0  0
    7.0865   -1.4934   24.2943 H   0  0  0  0  0  0
    9.9761   -0.8524   25.9646 H   0  0  0  0  0  0
    8.4002   -0.2566   25.5712 H   0  0  0  0  0  0
   11.8111   -0.5316   23.9030 H   0  0  0  0  0  0
   11.5073    3.3697   22.1717 H   0  0  0  0  0  0
    7.9855    3.7807   22.8795 H   0  0  0  0  0  0
    7.8917    5.6432   21.1202 H   0  0  0  0  0  0
    6.1476    7.3160   20.7354 H   0  0  0  0  0  0
    5.5930    8.9596   22.4974 H   0  0  0  0  0  0
    6.7678    8.8982   24.6756 H   0  0  0  0  0  0
    8.4895    7.2030   25.0928 H   0  0  0  0  0  0
    8.2720    1.8086   24.5138 H   0  0  0  0  0  0
  1  2  1  0  0  0
  1 31  1  0  0  0
  1 32  1  0  0  0
  1 33  1  0  0  0
  2  7  2  0  0  0
  2  3  1  0  0  0
  3  4  2  0  0  0
  3 34  1  0  0  0
  4  5  1  0  0  0
  4 35  1  0  0  0
  5  6  2  0  0  0
  6  7  1  0  0  0
  6 36  1  0  0  0
  7  8  1  0  0  0
  8  9  1  0  0  0
  8 37  1  0  0  0
  9 10  2  0  0  0
  9 11  1  0  0  0
 11 12  1  0  0  0
 11 38  1  0  0  0
 11 39  1  0  0  0
 12 30  2  0  0  0
 12 13  1  0  0  0
 13 14  2  0  0  0
 13 40  1  0  0  0
 14 15  1  0  0  0
 14 16  1  0  0  0
 16 17  2  0  0  0
 16 41  1  0  0  0
 17 18  1  0  0  0
 17 30  1  0  0  0
 18 19  2  0  0  0
 18 42  1  0  0  0
 19 20  1  0  0  0
 19 26  1  0  0  0
 20 25  2  0  0  0
 20 21  1  0  0  0
 21 22  2  0  0  0
 21 43  1  0  0  0
 22 23  1  0  0  0
 22 44  1  0  0  0
 23 24  2  0  0  0
 23 45  1  0  0  0
 24 25  1  0  0  0
 24 46  1  0  0  0
 25 47  1  0  0  0
 26 27  1  0  0  0
 26 28  1  0  0  0
 26 29  1  0  0  0
 30 48  1  0  0  0
M  END
> <r_i_docking_score>
-5.31552096886572

$$$$
ligprep_5.maegz:350
                    3D
 Schrodinger Suite 2020-4.
 47 49  0  0  1  0            999 V2000
    6.0954    2.0997   22.3054 C   0  0  0  0  0  0
    6.0556    1.4184   20.9435 C   0  0  0  0  0  0
    5.3162    1.9991   19.9066 C   0  0  0  0  0  0
    5.3030    1.3783   18.6591 C   0  0  0  0  0  0
    5.9694    0.2266   18.3982 N   0  0  0  0  0  0
    6.6657   -0.3438   19.4123 C   0  0  0  0  0  0
    6.7384    0.2126   20.6980 C   0  0  0  0  0  0
    7.5267   -0.3611   21.7046 N   0  0  0  0  0  0
    7.6150   -1.6702   22.0279 C   0  0  0  0  0  0
    6.9262   -2.5523   21.5108 O   0  0  0  0  0  0
    8.5994   -2.0419   23.1534 C   0  0  0  0  0  0
    9.9271   -1.2833   23.0779 C   0  0  0  0  0  0
   11.0257   -1.8539   22.4301 C   0  0  0  0  0  0
   12.2156   -1.1388   22.3062 C   0  0  0  0  0  0
   13.5678   -1.8530   21.5084 Cl  0  0  0  0  0  0
   12.3042    0.1659   22.7957 C   0  0  0  0  0  0
   11.2058    0.7539   23.4271 C   0  0  0  0  0  0
   11.2442    2.0679   23.9140 N   0  0  0  0  0  0
   11.4765    3.1529   22.9571 C   0  0  2  0  0  0
   12.9525    3.3854   22.6149 C   0  0  0  0  0  0
   12.9986    4.8248   22.1055 C   0  0  0  0  0  0
   11.9703    5.5781   22.9581 C   0  0  0  0  0  0
   10.9799    4.5226   23.4795 C   0  0  1  0  0  0
    9.6439    4.7869   23.1075 O   0  0  0  0  0  0
   10.0338    0.0129   23.5924 C   0  0  0  0  0  0
    5.7055    1.4265   23.0693 H   0  0  0  0  0  0
    7.1224    2.3477   22.5751 H   0  0  0  0  0  0
    5.5051    3.0174   22.3236 H   0  0  0  0  0  0
    4.7814    2.9285   20.0513 H   0  0  0  0  0  0
    4.7698    1.8252   17.8357 H   0  0  0  0  0  0
    7.1923   -1.2515   19.1613 H   0  0  0  0  0  0
    8.0248    0.2912   22.2895 H   0  0  0  0  0  0
    8.1146   -1.8554   24.1119 H   0  0  0  0  0  0
    8.7942   -3.1147   23.1036 H   0  0  0  0  0  0
   10.9603   -2.8520   22.0140 H   0  0  0  0  0  0
   13.2357    0.7005   22.6983 H   0  0  0  0  0  0
   10.4759    2.2711   24.5385 H   0  0  0  0  0  0
   10.9633    2.9304   22.0192 H   0  0  0  0  0  0
   13.5687    3.2705   23.5059 H   0  0  0  0  0  0
   13.3246    2.7029   21.8536 H   0  0  0  0  0  0
   12.7164    4.8542   21.0517 H   0  0  0  0  0  0
   13.9989    5.2555   22.1875 H   0  0  0  0  0  0
   11.4706    6.3465   22.3639 H   0  0  0  0  0  0
   12.4756    6.0712   23.7927 H   0  0  0  0  0  0
   11.0359    4.5220   24.5710 H   0  0  0  0  0  0
    9.5767    4.7398   22.1400 H   0  0  0  0  0  0
    9.1859    0.4566   24.0935 H   0  0  0  0  0  0
  1  2  1  0  0  0
  1 26  1  0  0  0
  1 27  1  0  0  0
  1 28  1  0  0  0
  2  7  2  0  0  0
  2  3  1  0  0  0
  3  4  2  0  0  0
  3 29  1  0  0  0
  4  5  1  0  0  0
  4 30  1  0  0  0
  5  6  2  0  0  0
  6  7  1  0  0  0
  6 31  1  0  0  0
  7  8  1  0  0  0
  8  9  1  0  0  0
  8 32  1  0  0  0
  9 10  2  0  0  0
  9 11  1  0  0  0
 11 12  1  0  0  0
 11 33  1  0  0  0
 11 34  1  0  0  0
 12 25  2  0  0  0
 12 13  1  0  0  0
 13 14  2  0  0  0
 13 35  1  0  0  0
 14 15  1  0  0  0
 14 16  1  0  0  0
 16 17  2  0  0  0
 16 36  1  0  0  0
 17 18  1  0  0  0
 17 25  1  0  0  0
 18 19  1  0  0  0
 18 37  1  0  0  0
 19 23  1  0  0  0
 19 20  1  0  0  0
 19 38  1  0  0  0
 20 21  1  0  0  0
 20 39  1  0  0  0
 20 40  1  0  0  0
 21 22  1  0  0  0
 21 41  1  0  0  0
 21 42  1  0  0  0
 22 23  1  0  0  0
 22 43  1  0  0  0
 22 44  1  0  0  0
 23 24  1  0  0  0
 23 45  1  0  0  0
 24 46  1  0  0  0
 25 47  1  0  0  0
M  END
> <r_i_docking_score>
-6.08929750353922

$$$$
ligprep_5.maegz:351
                    3D
 Schrodinger Suite 2020-4.
 43 45  0  0  1  0            999 V2000
   10.4893    2.4995   23.0843 C   0  0  0  0  0  0
   11.3821    1.2932   22.8341 C   0  0  0  0  0  0
   12.7602    1.4903   22.7083 C   0  0  0  0  0  0
   13.5699    0.3911   22.4360 C   0  0  0  0  0  0
   13.0959   -0.8709   22.3076 N   0  0  0  0  0  0
   11.7594   -1.0560   22.4382 C   0  0  0  0  0  0
   10.8569   -0.0059   22.6860 C   0  0  0  0  0  0
    9.4669   -0.1963   22.8021 N   0  0  0  0  0  0
    8.7088   -1.1460   22.2154 C   0  0  0  0  0  0
    9.1443   -2.0521   21.5086 O   0  0  0  0  0  0
    7.1975   -1.0357   22.4337 C   0  0  0  0  0  0
    6.5904    0.0017   21.4979 C   0  0  0  0  0  0
    6.3530   -0.3023   20.1529 C   0  0  0  0  0  0
    5.8358    0.6691   19.2973 C   0  0  0  0  0  0
    5.5695    0.3065   17.6349 Cl  0  0  0  0  0  0
    5.5599    1.9463   19.7784 C   0  0  0  0  0  0
    5.8216    2.2744   21.1082 C   0  0  0  0  0  0
    5.5934    3.5982   21.5079 N   0  0  0  0  0  0
    5.6996    4.0490   22.8872 C   0  0  2  0  0  0
    6.2920    5.4194   23.1454 C   0  0  0  0  0  0
    7.0961    4.1732   23.4499 C   0  0  1  0  0  0
    7.4095    3.8501   24.9237 C   0  0  0  0  0  0
    6.4239    4.1962   25.7562 F   0  0  0  0  0  0
    7.6222    2.5428   25.0807 F   0  0  0  0  0  0
    8.5116    4.4910   25.3184 F   0  0  0  0  0  0
    6.3267    1.2923   21.9679 C   0  0  0  0  0  0
   10.0383    2.4361   24.0744 H   0  0  0  0  0  0
   11.0320    3.4430   23.0017 H   0  0  0  0  0  0
    9.6883    2.5237   22.3437 H   0  0  0  0  0  0
   13.1962    2.4740   22.8015 H   0  0  0  0  0  0
   14.6319    0.5226   22.3079 H   0  0  0  0  0  0
   11.4317   -2.0786   22.3318 H   0  0  0  0  0  0
    8.9746    0.5342   23.2926 H   0  0  0  0  0  0
    6.7335   -2.0069   22.2573 H   0  0  0  0  0  0
    6.9967   -0.7790   23.4743 H   0  0  0  0  0  0
    6.5810   -1.2849   19.7663 H   0  0  0  0  0  0
    5.1720    2.6961   19.1028 H   0  0  0  0  0  0
    5.1699    4.2351   20.8290 H   0  0  0  0  0  0
    4.8897    3.7115   23.5395 H   0  0  0  0  0  0
    6.5771    6.0334   22.2888 H   0  0  0  0  0  0
    5.8889    6.0191   23.9619 H   0  0  0  0  0  0
    7.9348    3.9600   22.7867 H   0  0  0  0  0  0
    6.5272    1.5260   23.0014 H   0  0  0  0  0  0
  1  2  1  0  0  0
  1 27  1  0  0  0
  1 28  1  0  0  0
  1 29  1  0  0  0
  2  7  2  0  0  0
  2  3  1  0  0  0
  3  4  2  0  0  0
  3 30  1  0  0  0
  4  5  1  0  0  0
  4 31  1  0  0  0
  5  6  2  0  0  0
  6  7  1  0  0  0
  6 32  1  0  0  0
  7  8  1  0  0  0
  8  9  1  0  0  0
  8 33  1  0  0  0
  9 10  2  0  0  0
  9 11  1  0  0  0
 11 12  1  0  0  0
 11 34  1  0  0  0
 11 35  1  0  0  0
 12 26  2  0  0  0
 12 13  1  0  0  0
 13 14  2  0  0  0
 13 36  1  0  0  0
 14 15  1  0  0  0
 14 16  1  0  0  0
 16 17  2  0  0  0
 16 37  1  0  0  0
 17 18  1  0  0  0
 17 26  1  0  0  0
 18 19  1  0  0  0
 18 38  1  0  0  0
 19 21  1  0  0  0
 19 20  1  0  0  0
 19 39  1  0  0  0
 20 21  1  0  0  0
 20 40  1  0  0  0
 20 41  1  0  0  0
 21 22  1  0  0  0
 21 42  1  0  0  0
 22 23  1  0  0  0
 22 24  1  0  0  0
 22 25  1  0  0  0
 26 43  1  0  0  0
M  END
> <r_i_docking_score>
-4.82048621005351

$$$$
ligprep_5.maegz:352
                    3D
 Schrodinger Suite 2020-4.
 52 54  0  0  1  0            999 V2000
    7.4158   -0.4523   19.9838 C   0  0  0  0  0  0
    6.4393    0.7137   20.0610 C   0  0  0  0  0  0
    5.5407    0.9039   19.0055 C   0  0  0  0  0  0
    4.5766    1.9071   19.1123 C   0  0  0  0  0  0
    4.4429    2.6895   20.2099 N   0  0  0  0  0  0
    5.3344    2.5223   21.2165 C   0  0  0  0  0  0
    6.3622    1.5749   21.1785 C   0  0  0  0  0  0
    7.2512    1.5348   22.2632 N   0  0  0  0  0  0
    8.5842    1.7112   22.1627 C   0  0  0  0  0  0
    9.1695    1.9471   21.1079 O   0  0  0  0  0  0
    9.4111    1.5693   23.4415 C   0  0  0  0  0  0
   10.1275    0.2273   23.4232 C   0  0  0  0  0  0
   11.3610    0.0841   22.7818 C   0  0  0  0  0  0
   11.9542   -1.1726   22.6884 C   0  0  0  0  0  0
   13.4808   -1.3550   21.9078 Cl  0  0  0  0  0  0
   11.3144   -2.2853   23.2310 C   0  0  0  0  0  0
   10.0846   -2.1621   23.8800 C   0  0  0  0  0  0
    9.5310   -3.3383   24.4191 N   0  0  0  0  0  0
    8.2824   -3.4847   25.1750 C   0  0  0  0  0  0
    8.3231   -2.6825   26.5030 C   0  0  0  0  0  0
    7.0689   -3.1334   24.2599 C   0  0  0  0  0  0
    5.7050   -3.4336   24.9263 C   0  0  0  0  0  0
    5.5915   -4.8943   25.4220 C   0  0  0  0  0  0
    4.4805   -5.0808   26.1330 F   0  0  0  0  0  0
    5.5100   -5.6528   24.3266 F   0  0  0  0  0  0
    6.8419   -5.3787   26.1925 C   0  0  0  0  0  0
    8.1678   -5.0044   25.4838 C   0  0  0  0  0  0
    9.4982   -0.8943   23.9666 C   0  0  0  0  0  0
    7.5914   -0.8859   20.9691 H   0  0  0  0  0  0
    7.0136   -1.2535   19.3635 H   0  0  0  0  0  0
    8.3694   -0.1397   19.5657 H   0  0  0  0  0  0
    5.5795    0.2835   18.1213 H   0  0  0  0  0  0
    3.8820    2.0945   18.3080 H   0  0  0  0  0  0
    5.2257    3.2004   22.0502 H   0  0  0  0  0  0
    6.8399    1.4943   23.1826 H   0  0  0  0  0  0
   10.1310    2.3875   23.4893 H   0  0  0  0  0  0
    8.7767    1.6503   24.3255 H   0  0  0  0  0  0
   11.8462    0.9412   22.3370 H   0  0  0  0  0  0
   11.7890   -3.2522   23.1489 H   0  0  0  0  0  0
   10.2223   -4.0397   24.6401 H   0  0  0  0  0  0
    7.4276   -2.8162   27.1067 H   0  0  0  0  0  0
    9.1687   -3.0053   27.1078 H   0  0  0  0  0  0
    8.4323   -1.6107   26.3631 H   0  0  0  0  0  0
    7.0642   -2.0911   23.9549 H   0  0  0  0  0  0
    7.1404   -3.6962   23.3264 H   0  0  0  0  0  0
    5.5406   -2.7509   25.7600 H   0  0  0  0  0  0
    4.9084   -3.2299   24.2094 H   0  0  0  0  0  0
    6.8275   -4.9765   27.2051 H   0  0  0  0  0  0
    6.7957   -6.4593   26.3093 H   0  0  0  0  0  0
    8.2493   -5.5866   24.5627 H   0  0  0  0  0  0
    9.0036   -5.3302   26.1071 H   0  0  0  0  0  0
    8.5487   -0.7448   24.4463 H   0  0  0  0  0  0
  1  2  1  0  0  0
  1 29  1  0  0  0
  1 30  1  0  0  0
  1 31  1  0  0  0
  2  7  2  0  0  0
  2  3  1  0  0  0
  3  4  2  0  0  0
  3 32  1  0  0  0
  4  5  1  0  0  0
  4 33  1  0  0  0
  5  6  2  0  0  0
  6  7  1  0  0  0
  6 34  1  0  0  0
  7  8  1  0  0  0
  8  9  1  0  0  0
  8 35  1  0  0  0
  9 10  2  0  0  0
  9 11  1  0  0  0
 11 12  1  0  0  0
 11 36  1  0  0  0
 11 37  1  0  0  0
 12 28  2  0  0  0
 12 13  1  0  0  0
 13 14  2  0  0  0
 13 38  1  0  0  0
 14 15  1  0  0  0
 14 16  1  0  0  0
 16 17  2  0  0  0
 16 39  1  0  0  0
 17 18  1  0  0  0
 17 28  1  0  0  0
 18 19  1  0  0  0
 18 40  1  0  0  0
 19 27  1  0  0  0
 19 20  1  0  0  0
 19 21  1  0  0  0
 20 41  1  0  0  0
 20 42  1  0  0  0
 20 43  1  0  0  0
 21 22  1  0  0  0
 21 44  1  0  0  0
 21 45  1  0  0  0
 22 23  1  0  0  0
 22 46  1  0  0  0
 22 47  1  0  0  0
 23 24  1  0  0  0
 23 25  1  0  0  0
 23 26  1  0  0  0
 26 27  1  0  0  0
 26 48  1  0  0  0
 26 49  1  0  0  0
 27 50  1  0  0  0
 27 51  1  0  0  0
 28 52  1  0  0  0
M  END
> <r_i_docking_score>
-6.16992049069612

$$$$
ligprep_5.maegz:353
                    3D
 Schrodinger Suite 2020-4.
 46 47  0  0  1  0            999 V2000
    9.6740   -1.8477   22.7929 C   0  0  0  0  0  0
   11.0343   -1.1701   22.6690 C   0  0  0  0  0  0
   12.0726   -1.8639   22.0416 C   0  0  0  0  0  0
   13.3143   -1.2528   21.9079 C   0  0  0  0  0  0
   13.5697   -0.0027   22.3639 N   0  0  0  0  0  0
   12.5631    0.6675   22.9779 C   0  0  0  0  0  0
   11.2732    0.1313   23.1560 C   0  0  0  0  0  0
   10.2109    0.8081   23.7905 N   0  0  0  0  0  0
   10.1602    2.0533   24.3077 C   0  0  0  0  0  0
   11.0872    2.8623   24.3071 O   0  0  0  0  0  0
    8.8274    2.4542   24.9504 C   0  0  0  0  0  0
    8.0597    3.4559   24.0982 C   0  0  0  0  0  0
    8.3559    4.8199   24.1686 C   0  0  0  0  0  0
    7.6627    5.7283   23.3703 C   0  0  0  0  0  0
    7.9897    7.4136   23.5081 Cl  0  0  0  0  0  0
    6.6899    5.2783   22.4792 C   0  0  0  0  0  0
    6.3743    3.9218   22.4035 C   0  0  0  0  0  0
    5.3614    3.5458   21.5080 N   0  0  0  0  0  0
    4.9115    2.1596   21.3454 C   0  0  0  0  0  0
    5.6213    1.3496   20.2240 C   0  0  0  0  0  0
    5.0683   -0.0817   20.1978 C   0  0  0  0  0  0
    5.3402    1.9735   18.8433 C   0  0  0  0  0  0
    7.0705    1.2513   20.4912 C   0  0  0  0  0  0
    8.2051    1.1632   20.7079 N   0  0  0  0  0  0
    7.0667    3.0144   23.2186 C   0  0  0  0  0  0
    9.6636   -2.8438   22.3452 H   0  0  0  0  0  0
    9.3940   -1.9452   23.8425 H   0  0  0  0  0  0
    8.9093   -1.2489   22.2968 H   0  0  0  0  0  0
   11.9130   -2.8528   21.6425 H   0  0  0  0  0  0
   14.1259   -1.7629   21.4122 H   0  0  0  0  0  0
   12.8391    1.6525   23.3192 H   0  0  0  0  0  0
    9.3564    0.2757   23.8387 H   0  0  0  0  0  0
    9.0403    2.8929   25.9232 H   0  0  0  0  0  0
    8.2102    1.5736   25.1390 H   0  0  0  0  0  0
    9.1212    5.1733   24.8440 H   0  0  0  0  0  0
    6.1669    5.9909   21.8549 H   0  0  0  0  0  0
    5.1699    4.2064   20.7490 H   0  0  0  0  0  0
    3.8395    2.1972   21.1436 H   0  0  0  0  0  0
    4.9811    1.6263   22.2938 H   0  0  0  0  0  0
    3.9894   -0.0529   20.0482 H   0  0  0  0  0  0
    5.5010   -0.6736   19.3884 H   0  0  0  0  0  0
    5.2617   -0.6116   21.1303 H   0  0  0  0  0  0
    4.2881    1.8891   18.5687 H   0  0  0  0  0  0
    5.5686    3.0349   18.8408 H   0  0  0  0  0  0
    5.9242    1.5001   18.0535 H   0  0  0  0  0  0
    6.8571    1.9577   23.1720 H   0  0  0  0  0  0
  1  2  1  0  0  0
  1 26  1  0  0  0
  1 27  1  0  0  0
  1 28  1  0  0  0
  2  7  2  0  0  0
  2  3  1  0  0  0
  3  4  2  0  0  0
  3 29  1  0  0  0
  4  5  1  0  0  0
  4 30  1  0  0  0
  5  6  2  0  0  0
  6  7  1  0  0  0
  6 31  1  0  0  0
  7  8  1  0  0  0
  8  9  1  0  0  0
  8 32  1  0  0  0
  9 10  2  0  0  0
  9 11  1  0  0  0
 11 12  1  0  0  0
 11 33  1  0  0  0
 11 34  1  0  0  0
 12 25  2  0  0  0
 12 13  1  0  0  0
 13 14  2  0  0  0
 13 35  1  0  0  0
 14 15  1  0  0  0
 14 16  1  0  0  0
 16 17  2  0  0  0
 16 36  1  0  0  0
 17 18  1  0  0  0
 17 25  1  0  0  0
 18 19  1  0  0  0
 18 37  1  0  0  0
 19 20  1  0  0  0
 19 38  1  0  0  0
 19 39  1  0  0  0
 20 21  1  0  0  0
 20 22  1  0  0  0
 20 23  1  0  0  0
 21 40  1  0  0  0
 21 41  1  0  0  0
 21 42  1  0  0  0
 22 43  1  0  0  0
 22 44  1  0  0  0
 22 45  1  0  0  0
 23 24  3  0  0  0
 25 46  1  0  0  0
M  END
> <r_i_docking_score>
-5.78540846833213

$$$$
ligprep_5.maegz:354
                    3D
 Schrodinger Suite 2020-4.
 35 37  0  0  1  0            999 V2000
    6.3484   -2.1585   22.4571 O   0  0  0  0  0  0
    7.4973   -2.0288   22.0287 C   0  0  0  0  0  0
    8.6174   -2.9014   22.6231 C   0  0  0  0  0  0
    9.9264   -2.4465   22.2447 O   0  0  0  0  0  0
   10.4913   -1.3227   22.8223 C   0  0  0  0  0  0
    9.8916   -0.5606   23.8399 C   0  0  0  0  0  0
   10.5337    0.5670   24.3527 C   0  0  0  0  0  0
   11.7873    0.9378   23.8681 C   0  0  0  0  0  0
   12.3991    0.1791   22.8702 C   0  0  0  0  0  0
   13.9677    0.6158   22.3073 Cl  0  0  0  0  0  0
   11.7481   -0.9403   22.3461 C   0  0  0  0  0  0
    7.8422   -1.1711   21.0474 N   0  0  0  0  0  0
    6.9818   -0.2514   20.4291 C   0  0  0  0  0  0
    6.7631   -0.3686   19.0523 C   0  0  0  0  0  0
    5.9680    0.4613   18.3401 N   0  0  0  0  0  0
    5.3619    1.4685   19.0066 C   0  0  0  0  0  0
    5.5136    1.7158   20.3905 C   0  0  0  0  0  0
    4.8772    2.8003   21.0399 C   0  0  0  0  0  0
    5.0809    3.0185   22.3992 C   0  0  0  0  0  0
    5.9151    2.1797   23.1296 C   0  0  0  0  0  0
    6.5552    1.1037   22.5177 C   0  0  0  0  0  0
    6.3592    0.8353   21.1321 C   0  0  0  0  0  0
    8.4878   -3.9148   22.2414 H   0  0  0  0  0  0
    8.5257   -2.9673   23.7089 H   0  0  0  0  0  0
    8.9238   -0.8222   24.2411 H   0  0  0  0  0  0
   10.0646    1.1516   25.1325 H   0  0  0  0  0  0
   12.2920    1.8035   24.2737 H   0  0  0  0  0  0
   12.2183   -1.5234   21.5656 H   0  0  0  0  0  0
    8.7418   -1.3325   20.6106 H   0  0  0  0  0  0
    7.2229   -1.1640   18.4832 H   0  0  0  0  0  0
    4.7392    2.1239   18.4096 H   0  0  0  0  0  0
    4.2540    3.4724   20.4644 H   0  0  0  0  0  0
    4.5954    3.8538   22.8845 H   0  0  0  0  0  0
    6.0711    2.3631   24.1827 H   0  0  0  0  0  0
    7.2028    0.4707   23.1044 H   0  0  0  0  0  0
  1  2  2  0  0  0
  2  3  1  0  0  0
  2 12  1  0  0  0
  3  4  1  0  0  0
  3 23  1  0  0  0
  3 24  1  0  0  0
  4  5  1  0  0  0
  5 11  2  0  0  0
  5  6  1  0  0  0
  6  7  2  0  0  0
  6 25  1  0  0  0
  7  8  1  0  0  0
  7 26  1  0  0  0
  8  9  2  0  0  0
  8 27  1  0  0  0
  9 10  1  0  0  0
  9 11  1  0  0  0
 11 28  1  0  0  0
 12 13  1  0  0  0
 12 29  1  0  0  0
 13 22  2  0  0  0
 13 14  1  0  0  0
 14 15  2  0  0  0
 14 30  1  0  0  0
 15 16  1  0  0  0
 16 17  2  0  0  0
 16 31  1  0  0  0
 17 22  1  0  0  0
 17 18  1  0  0  0
 18 19  2  0  0  0
 18 32  1  0  0  0
 19 20  1  0  0  0
 19 33  1  0  0  0
 20 21  2  0  0  0
 20 34  1  0  0  0
 21 22  1  0  0  0
 21 35  1  0  0  0
M  END
> <r_i_docking_score>
-5.41794126724262

$$$$
ligprep_5.maegz:355
                    3D
 Schrodinger Suite 2020-4.
 37 39  0  0  1  0            999 V2000
    9.4676    1.5471   21.2305 O   0  0  0  0  0  0
    9.0948    1.0889   22.3122 C   0  0  0  0  0  0
    8.4334   -0.2994   22.3837 C   0  0  0  0  0  0
    7.8752   -0.8568   21.0452 C   0  0  0  0  0  0
    6.8601    0.0142   20.2968 C   0  0  0  0  0  0
    6.8116   -0.0490   18.9009 C   0  0  0  0  0  0
    5.9184    0.7464   18.1865 C   0  0  0  0  0  0
    5.0582    1.6082   18.8624 C   0  0  0  0  0  0
    5.0850    1.6714   20.2524 C   0  0  0  0  0  0
    4.0269    2.7471   21.0888 Cl  0  0  0  0  0  0
    5.9731    0.8688   20.9671 C   0  0  0  0  0  0
    9.2172    1.7379   23.4893 N   0  0  0  0  0  0
    9.7155    3.0404   23.6605 C   0  0  0  0  0  0
    8.8720    3.9694   24.2780 C   0  0  0  0  0  0
    9.1989    5.2650   24.4911 N   0  0  0  0  0  0
   10.4186    5.6765   24.0837 C   0  0  0  0  0  0
   11.3835    4.8412   23.4754 C   0  0  0  0  0  0
   12.6549    5.3179   23.0760 C   0  0  0  0  0  0
   13.5674    4.4498   22.4872 C   0  0  0  0  0  0
   13.2523    3.1084   22.3078 C   0  0  0  0  0  0
   12.0167    2.6099   22.7072 C   0  0  0  0  0  0
   11.0327    3.4682   23.2705 C   0  0  0  0  0  0
    7.6321   -0.2737   23.1248 H   0  0  0  0  0  0
    9.1790   -0.9958   22.7685 H   0  0  0  0  0  0
    7.4015   -1.8222   21.2309 H   0  0  0  0  0  0
    8.7176   -1.0736   20.3861 H   0  0  0  0  0  0
    7.4767   -0.7059   18.3571 H   0  0  0  0  0  0
    5.9007    0.7032   17.1081 H   0  0  0  0  0  0
    4.3764    2.2369   18.3074 H   0  0  0  0  0  0
    5.9719    0.9265   22.0456 H   0  0  0  0  0  0
    8.7281    1.3457   24.2793 H   0  0  0  0  0  0
    7.8765    3.6875   24.5931 H   0  0  0  0  0  0
   10.6483    6.7184   24.2537 H   0  0  0  0  0  0
   12.9141    6.3545   23.2322 H   0  0  0  0  0  0
   14.5354    4.8192   22.1819 H   0  0  0  0  0  0
   13.9799    2.4447   21.8654 H   0  0  0  0  0  0
   11.7989    1.5634   22.5586 H   0  0  0  0  0  0
  1  2  2  0  0  0
  2  3  1  0  0  0
  2 12  1  0  0  0
  3  4  1  0  0  0
  3 23  1  0  0  0
  3 24  1  0  0  0
  4  5  1  0  0  0
  4 25  1  0  0  0
  4 26  1  0  0  0
  5 11  2  0  0  0
  5  6  1  0  0  0
  6  7  2  0  0  0
  6 27  1  0  0  0
  7  8  1  0  0  0
  7 28  1  0  0  0
  8  9  2  0  0  0
  8 29  1  0  0  0
  9 10  1  0  0  0
  9 11  1  0  0  0
 11 30  1  0  0  0
 12 13  1  0  0  0
 12 31  1  0  0  0
 13 22  2  0  0  0
 13 14  1  0  0  0
 14 15  2  0  0  0
 14 32  1  0  0  0
 15 16  1  0  0  0
 16 17  2  0  0  0
 16 33  1  0  0  0
 17 22  1  0  0  0
 17 18  1  0  0  0
 18 19  2  0  0  0
 18 34  1  0  0  0
 19 20  1  0  0  0
 19 35  1  0  0  0
 20 21  2  0  0  0
 20 36  1  0  0  0
 21 22  1  0  0  0
 21 37  1  0  0  0
M  END
> <r_i_docking_score>
-6.34614052845493

$$$$
ligprep_5.maegz:356
                    3D
 Schrodinger Suite 2020-4.
 38 41  0  0  1  0            999 V2000
   13.5698   -2.0527   21.3285 O   0  0  0  0  0  0
   12.4851   -1.3695   21.9079 C   0  0  0  0  0  0
   12.9418   -0.0599   22.5744 C   0  0  0  0  0  0
   11.8542    0.8707   22.9236 N   0  0  0  0  0  0
   10.5961    0.6383   23.4824 C   0  0  0  0  0  0
    9.9877   -0.7134   23.8343 C   0  0  0  0  0  0
    9.2868   -1.6703   22.4400 S   0  0  0  0  0  0
    8.1611   -0.5518   21.6791 C   0  0  0  0  0  0
    7.5717    0.5080   22.1930 N   0  0  0  0  0  0
    6.7564    0.9361   21.1814 C   0  0  0  0  0  0
    5.8555    2.0072   21.1086 C   0  0  0  0  0  0
    5.1439    2.1853   19.9147 C   0  0  0  0  0  0
    5.3254    1.3342   18.8189 C   0  0  0  0  0  0
    6.2201    0.2632   18.8666 C   0  0  0  0  0  0
    6.9133    0.0961   20.0673 C   0  0  0  0  0  0
    7.8250   -0.8531   20.3917 O   0  0  0  0  0  0
    9.9601    1.7425   23.7924 N   0  0  0  0  0  0
   10.7905    2.7559   23.4217 C   0  0  0  0  0  0
   10.5996    4.1383   23.5476 C   0  0  0  0  0  0
   11.6125    4.9818   23.0912 C   0  0  0  0  0  0
   12.7749    4.4685   22.5152 C   0  0  0  0  0  0
   13.9676    5.5473   21.9080 Cl  0  0  0  0  0  0
   13.0002    3.0961   22.4015 C   0  0  0  0  0  0
   11.9858    2.2487   22.8632 C   0  0  0  0  0  0
   13.2183   -2.8463   20.9145 H   0  0  0  0  0  0
   11.9903   -2.0302   22.6160 H   0  0  0  0  0  0
   11.7666   -1.1633   21.1109 H   0  0  0  0  0  0
   13.6167    0.4597   21.8925 H   0  0  0  0  0  0
   13.4750   -0.2444   23.5076 H   0  0  0  0  0  0
   10.7176   -1.3344   24.3512 H   0  0  0  0  0  0
    9.1869   -0.5917   24.5657 H   0  0  0  0  0  0
    5.7145    2.6763   21.9429 H   0  0  0  0  0  0
    4.4483    3.0109   19.8287 H   0  0  0  0  0  0
    4.7705    1.5148   17.9097 H   0  0  0  0  0  0
    6.3697   -0.3982   18.0270 H   0  0  0  0  0  0
    9.6916    4.5374   23.9757 H   0  0  0  0  0  0
   11.4821    6.0522   23.1591 H   0  0  0  0  0  0
   13.9145    2.7232   21.9652 H   0  0  0  0  0  0
  1  2  1  0  0  0
  1 25  1  0  0  0
  2  3  1  0  0  0
  2 26  1  0  0  0
  2 27  1  0  0  0
  3  4  1  0  0  0
  3 28  1  0  0  0
  3 29  1  0  0  0
  4 24  1  0  0  0
  4  5  1  0  0  0
  5  6  1  0  0  0
  5 17  2  0  0  0
  6  7  1  0  0  0
  6 30  1  0  0  0
  6 31  1  0  0  0
  7  8  1  0  0  0
  8 16  1  0  0  0
  8  9  2  0  0  0
  9 10  1  0  0  0
 10 15  2  0  0  0
 10 11  1  0  0  0
 11 12  2  0  0  0
 11 32  1  0  0  0
 12 13  1  0  0  0
 12 33  1  0  0  0
 13 14  2  0  0  0
 13 34  1  0  0  0
 14 15  1  0  0  0
 14 35  1  0  0  0
 15 16  1  0  0  0
 17 18  1  0  0  0
 18 24  2  0  0  0
 18 19  1  0  0  0
 19 20  2  0  0  0
 19 36  1  0  0  0
 20 21  1  0  0  0
 20 37  1  0  0  0
 21 22  1  0  0  0
 21 23  2  0  0  0
 23 24  1  0  0  0
 23 38  1  0  0  0
M  END
> <r_i_docking_score>
-6.83976924670869

$$$$
ligprep_5.maegz:357
                    3D
 Schrodinger Suite 2020-4.
 26 27  0  0  1  0            999 V2000
   13.7104    5.5490   21.9047 N   0  0  0  0  0  0
   13.0938    4.6768   22.3512 C   0  0  0  0  0  0
   12.3237    3.5837   22.9203 C   0  0  0  0  0  0
   11.2042    3.7994   23.6012 N   0  0  0  0  0  0
   10.8425    2.5940   23.9510 C   0  0  0  0  0  0
   11.7390    1.6817   23.4685 N   0  0  0  0  0  0
   11.7158    0.2249   23.5690 C   0  0  0  0  0  0
   10.4879   -0.4130   22.9034 C   0  0  0  0  0  0
   10.0055    0.1147   21.9014 O   0  0  0  0  0  0
   10.0308   -1.5471   23.4787 N   0  0  0  0  0  0
    8.8945   -2.3252   23.1633 C   0  0  0  0  0  0
    7.9402   -1.9609   22.1942 C   0  0  0  0  0  0
    6.8455   -2.7787   21.9229 C   0  0  0  0  0  0
    6.6783   -3.9723   22.6175 C   0  0  0  0  0  0
    5.1828   -5.0889   22.2481 Br  0  0  0  0  0  0
    7.6024   -4.3406   23.5911 C   0  0  0  0  0  0
    8.7015   -3.5265   23.8731 C   0  0  0  0  0  0
    9.8062   -4.0578   25.1007 Cl  0  0  0  0  0  0
   12.6962    2.3225   22.7941 N   0  0  0  0  0  0
    9.9627    2.2877   24.4978 H   0  0  0  0  0  0
   12.6144   -0.1873   23.1087 H   0  0  0  0  0  0
   11.7551   -0.0199   24.6308 H   0  0  0  0  0  0
   10.5669   -1.9170   24.2489 H   0  0  0  0  0  0
    8.0104   -1.0482   21.6270 H   0  0  0  0  0  0
    6.1291   -2.4826   21.1699 H   0  0  0  0  0  0
    7.4659   -5.2657   24.1302 H   0  0  0  0  0  0
  1  2  3  0  0  0
  2  3  1  0  0  0
  3 19  2  0  0  0
  3  4  1  0  0  0
  4  5  2  0  0  0
  5  6  1  0  0  0
  5 20  1  0  0  0
  6  7  1  0  0  0
  6 19  1  0  0  0
  7  8  1  0  0  0
  7 21  1  0  0  0
  7 22  1  0  0  0
  8  9  2  0  0  0
  8 10  1  0  0  0
 10 11  1  0  0  0
 10 23  1  0  0  0
 11 17  2  0  0  0
 11 12  1  0  0  0
 12 13  2  0  0  0
 12 24  1  0  0  0
 13 14  1  0  0  0
 13 25  1  0  0  0
 14 15  1  0  0  0
 14 16  2  0  0  0
 16 17  1  0  0  0
 16 26  1  0  0  0
 17 18  1  0  0  0
M  END
> <r_i_docking_score>
-5.51797500188728

$$$$
ligprep_5.maegz:358
                    3D
 Schrodinger Suite 2020-4.
 34 36  0  0  1  0            999 V2000
   14.0021    0.3801   22.1358 C   0  0  0  0  0  0
   12.7722    0.9173   22.6974 N   0  0  0  0  0  0
   11.8943   -0.1146   23.2008 N   0  0  0  0  0  0
   10.8077    0.2683   23.8104 C   0  0  0  0  0  0
    9.9400   -0.7904   24.3782 C   0  0  0  0  0  0
    9.1673   -0.5360   25.5213 C   0  0  0  0  0  0
    8.3864   -1.5418   26.0866 C   0  0  0  0  0  0
    8.3641   -2.8198   25.5197 C   0  0  0  0  0  0
    7.5248   -3.9287   26.1532 C   0  0  0  0  0  0
    8.2454   -4.5184   27.1064 F   0  0  0  0  0  0
    7.1715   -4.8529   25.2574 F   0  0  0  0  0  0
    6.4123   -3.4377   26.7022 F   0  0  0  0  0  0
    9.1179   -3.0749   24.3710 C   0  0  0  0  0  0
    9.8966   -2.0716   23.8040 C   0  0  0  0  0  0
   10.4202    1.6138   23.9779 N   0  0  0  0  0  0
   11.1628    2.5551   23.4925 C   0  0  0  0  0  0
   10.7627    3.9625   23.6844 C   0  0  0  0  0  0
    9.7477    4.2836   24.3137 O   0  0  0  0  0  0
   11.6254    4.8889   23.1111 N   0  0  0  0  0  0
   11.3004    6.3161   23.3525 C   0  0  0  0  0  0
   12.7931    4.6135   22.3921 C   0  0  0  0  0  0
   13.4333    5.5470   21.9073 O   0  0  0  0  0  0
   13.1752    3.2639   22.2632 N   0  0  0  0  0  0
   12.4594    2.3200   22.7474 C   0  0  0  0  0  0
   14.7799    1.1435   22.1027 H   0  0  0  0  0  0
   14.3683   -0.4400   22.7525 H   0  0  0  0  0  0
   13.8836    0.0012   21.1221 H   0  0  0  0  0  0
    9.1801    0.4353   25.9980 H   0  0  0  0  0  0
    7.8120   -1.3256   26.9763 H   0  0  0  0  0  0
    9.1122   -4.0542   23.9147 H   0  0  0  0  0  0
   10.4716   -2.3094   22.9189 H   0  0  0  0  0  0
   10.6960    6.4772   24.2464 H   0  0  0  0  0  0
   12.2006    6.9122   23.5078 H   0  0  0  0  0  0
   10.7583    6.7284   22.5011 H   0  0  0  0  0  0
  1  2  1  0  0  0
  1 25  1  0  0  0
  1 26  1  0  0  0
  1 27  1  0  0  0
  2 24  1  0  0  0
  2  3  1  0  0  0
  3  4  2  0  0  0
  4  5  1  0  0  0
  4 15  1  0  0  0
  5 14  2  0  0  0
  5  6  1  0  0  0
  6  7  2  0  0  0
  6 28  1  0  0  0
  7  8  1  0  0  0
  7 29  1  0  0  0
  8  9  1  0  0  0
  8 13  2  0  0  0
  9 10  1  0  0  0
  9 11  1  0  0  0
  9 12  1  0  0  0
 13 14  1  0  0  0
 13 30  1  0  0  0
 14 31  1  0  0  0
 15 16  2  0  0  0
 16 24  1  0  0  0
 16 17  1  0  0  0
 17 18  2  0  0  0
 17 19  1  0  0  0
 19 20  1  0  0  0
 19 21  1  0  0  0
 20 32  1  0  0  0
 20 33  1  0  0  0
 20 34  1  0  0  0
 21 22  2  0  0  0
 21 23  1  0  0  0
 23 24  2  0  0  0
M  END
> <r_i_docking_score>
-6.6076628880845

$$$$
ligprep_5.maegz:359
                    3D
 Schrodinger Suite 2020-4.
 33 35  0  0  1  0            999 V2000
    8.6933    1.1466   20.7576 O   0  0  0  0  0  0
    8.3098    0.1839   21.4256 C   0  0  0  0  0  0
    6.8683   -0.3318   21.2839 C   0  0  0  0  0  0
    5.9706    0.5943   20.4649 C   0  0  0  0  0  0
    5.9697    0.5340   19.0672 C   0  0  0  0  0  0
    5.1701    1.4102   18.3327 C   0  0  0  0  0  0
    4.3701    2.3465   18.9884 C   0  0  0  0  0  0
    4.3615    2.4083   20.3776 C   0  0  0  0  0  0
    3.3386    3.5376   21.1935 Cl  0  0  0  0  0  0
    5.1748    1.5471   21.1087 C   0  0  0  0  0  0
    9.1054   -0.5145   22.2653 N   0  0  0  0  0  0
   10.4893   -0.3158   22.4366 C   0  0  0  0  0  0
   11.3072   -1.4450   22.3074 C   0  0  0  0  0  0
   12.6607   -1.4068   22.3076 N   0  0  0  0  0  0
   13.2492   -0.1989   22.4339 C   0  0  0  0  0  0
   12.5495    1.0091   22.6208 C   0  0  0  0  0  0
   13.1695    2.2747   22.7085 C   0  0  0  0  0  0
   12.5072    3.4353   22.9127 N   0  0  0  0  0  0
   11.1624    3.3656   23.0477 C   0  0  0  0  0  0
   10.4358    2.1792   22.9401 C   0  0  0  0  0  0
   11.1223    0.9565   22.6768 C   0  0  0  0  0  0
    6.4399   -0.4800   22.2768 H   0  0  0  0  0  0
    6.9015   -1.3088   20.8008 H   0  0  0  0  0  0
    6.5930   -0.1798   18.5475 H   0  0  0  0  0  0
    5.1745    1.3732   17.2532 H   0  0  0  0  0  0
    3.7652    3.0321   18.4113 H   0  0  0  0  0  0
    5.1696    1.6074   22.1877 H   0  0  0  0  0  0
    8.7375   -1.3844   22.6205 H   0  0  0  0  0  0
   10.8799   -2.4214   22.1241 H   0  0  0  0  0  0
   14.3271   -0.1864   22.3838 H   0  0  0  0  0  0
   14.2418    2.3527   22.6083 H   0  0  0  0  0  0
   10.6507    4.3042   23.2100 H   0  0  0  0  0  0
    9.3608    2.1957   23.0297 H   0  0  0  0  0  0
  1  2  2  0  0  0
  2  3  1  0  0  0
  2 11  1  0  0  0
  3  4  1  0  0  0
  3 22  1  0  0  0
  3 23  1  0  0  0
  4 10  2  0  0  0
  4  5  1  0  0  0
  5  6  2  0  0  0
  5 24  1  0  0  0
  6  7  1  0  0  0
  6 25  1  0  0  0
  7  8  2  0  0  0
  7 26  1  0  0  0
  8  9  1  0  0  0
  8 10  1  0  0  0
 10 27  1  0  0  0
 11 12  1  0  0  0
 11 28  1  0  0  0
 12 21  2  0  0  0
 12 13  1  0  0  0
 13 14  2  0  0  0
 13 29  1  0  0  0
 14 15  1  0  0  0
 15 16  2  0  0  0
 15 30  1  0  0  0
 16 21  1  0  0  0
 16 17  1  0  0  0
 17 18  2  0  0  0
 17 31  1  0  0  0
 18 19  1  0  0  0
 19 20  2  0  0  0
 19 32  1  0  0  0
 20 21  1  0  0  0
 20 33  1  0  0  0
M  END
> <r_i_docking_score>
-6.43976704670262

$$$$
ligprep_5.maegz:360
                    3D
 Schrodinger Suite 2020-4.
 33 35  0  0  1  0            999 V2000
    9.0438    1.9068   21.7423 O   0  0  0  0  0  0
    8.6283    1.3043   22.7382 C   0  0  0  0  0  0
    9.5966    0.7302   23.7830 C   0  0  0  0  0  0
   11.0419    0.7139   23.3057 C   0  0  0  0  0  0
   11.7871    1.8969   23.2862 C   0  0  0  0  0  0
   13.0817    1.9005   22.7764 C   0  0  0  0  0  0
   13.6449    0.7171   22.3081 C   0  0  0  0  0  0
   12.9045   -0.4645   22.3083 C   0  0  0  0  0  0
   13.5694   -1.9064   21.6379 Cl  0  0  0  0  0  0
   11.6018   -0.4655   22.8035 C   0  0  0  0  0  0
    7.3236    1.1333   23.0196 N   0  0  0  0  0  0
    6.2747    1.6468   22.2467 C   0  0  0  0  0  0
    5.3962    2.5438   22.8629 C   0  0  0  0  0  0
    4.3628    3.1467   22.2305 N   0  0  0  0  0  0
    4.1803    2.8539   20.9230 C   0  0  0  0  0  0
    4.9776    1.9484   20.1905 C   0  0  0  0  0  0
    4.7696    1.6630   18.8270 C   0  0  0  0  0  0
    5.5976    0.7473   18.1848 C   0  0  0  0  0  0
    6.6137    0.1367   18.9142 C   0  0  0  0  0  0
    6.8492    0.3950   20.2235 N   0  0  0  0  0  0
    6.0553    1.3038   20.8701 C   0  0  0  0  0  0
    9.5322    1.3391   24.6845 H   0  0  0  0  0  0
    9.2842   -0.2810   24.0513 H   0  0  0  0  0  0
   11.3518    2.8206   23.6399 H   0  0  0  0  0  0
   13.6499    2.8186   22.7467 H   0  0  0  0  0  0
   14.6461    0.7374   21.9073 H   0  0  0  0  0  0
   11.0254   -1.3789   22.7733 H   0  0  0  0  0  0
    7.0737    0.7137   23.9007 H   0  0  0  0  0  0
    5.5260    2.8209   23.8992 H   0  0  0  0  0  0
    3.3782    3.3782   20.4247 H   0  0  0  0  0  0
    3.9691    2.1674   18.3080 H   0  0  0  0  0  0
    5.4604    0.5228   17.1377 H   0  0  0  0  0  0
    7.2731   -0.5757   18.4391 H   0  0  0  0  0  0
  1  2  2  0  0  0
  2  3  1  0  0  0
  2 11  1  0  0  0
  3  4  1  0  0  0
  3 22  1  0  0  0
  3 23  1  0  0  0
  4 10  2  0  0  0
  4  5  1  0  0  0
  5  6  2  0  0  0
  5 24  1  0  0  0
  6  7  1  0  0  0
  6 25  1  0  0  0
  7  8  2  0  0  0
  7 26  1  0  0  0
  8  9  1  0  0  0
  8 10  1  0  0  0
 10 27  1  0  0  0
 11 12  1  0  0  0
 11 28  1  0  0  0
 12 21  2  0  0  0
 12 13  1  0  0  0
 13 14  2  0  0  0
 13 29  1  0  0  0
 14 15  1  0  0  0
 15 16  2  0  0  0
 15 30  1  0  0  0
 16 21  1  0  0  0
 16 17  1  0  0  0
 17 18  2  0  0  0
 17 31  1  0  0  0
 18 19  1  0  0  0
 18 32  1  0  0  0
 19 20  2  0  0  0
 19 33  1  0  0  0
 20 21  1  0  0  0
M  END
> <r_i_docking_score>
-6.26233772606429

$$$$
ligprep_5.maegz:361
                    3D
 Schrodinger Suite 2020-4.
 37 38  0  0  1  0            999 V2000
    7.3970    3.6325   22.4194 C   0  0  0  0  0  0
    6.0448    2.9377   22.1489 C   0  0  0  0  0  0
    5.4358    2.3108   23.4175 C   0  0  0  0  0  0
    6.0519    1.9659   20.9521 C   0  0  0  0  0  0
    5.1727    2.2265   19.8898 C   0  0  0  0  0  0
    5.1706    1.3848   18.7828 C   0  0  0  0  0  0
    5.9695    0.2972   18.6801 N   0  0  0  0  0  0
    6.8127    0.0328   19.7060 C   0  0  0  0  0  0
    6.9007    0.8341   20.8618 C   0  0  0  0  0  0
    7.7869    0.5643   21.9254 N   0  0  0  0  0  0
    8.8205   -0.2986   22.0005 C   0  0  0  0  0  0
    9.1602   -1.0739   21.1080 O   0  0  0  0  0  0
    9.6324   -0.2592   23.3032 C   0  0  0  0  0  0
   11.0334    0.2839   23.0409 C   0  0  0  0  0  0
   12.0753   -0.5881   22.7016 C   0  0  0  0  0  0
   13.3305   -0.0833   22.3536 C   0  0  0  0  0  0
   13.5560    1.2949   22.3532 C   0  0  0  0  0  0
   12.5270    2.1706   22.7111 C   0  0  0  0  0  0
   12.7976    3.8753   22.7071 Cl  0  0  0  0  0  0
   11.2698    1.6670   23.0519 C   0  0  0  0  0  0
    7.8135    4.0676   21.5084 H   0  0  0  0  0  0
    7.2743    4.4511   23.1313 H   0  0  0  0  0  0
    8.1450    2.9583   22.8343 H   0  0  0  0  0  0
    5.3719    3.7549   21.8796 H   0  0  0  0  0  0
    4.4263    1.9468   23.2263 H   0  0  0  0  0  0
    6.0245    1.4726   23.7885 H   0  0  0  0  0  0
    5.3692    3.0455   24.2222 H   0  0  0  0  0  0
    4.5197    3.0892   19.9072 H   0  0  0  0  0  0
    4.5211    1.5841   17.9424 H   0  0  0  0  0  0
    7.4160   -0.8503   19.5623 H   0  0  0  0  0  0
    7.6337    1.1466   22.7339 H   0  0  0  0  0  0
    9.1352    0.3524   24.0578 H   0  0  0  0  0  0
    9.6885   -1.2756   23.6973 H   0  0  0  0  0  0
   11.9009   -1.6567   22.6640 H   0  0  0  0  0  0
   14.1183   -0.7645   22.0677 H   0  0  0  0  0  0
   14.5249    1.6868   22.0696 H   0  0  0  0  0  0
   10.4694    2.3536   23.2985 H   0  0  0  0  0  0
  1  2  1  0  0  0
  1 21  1  0  0  0
  1 22  1  0  0  0
  1 23  1  0  0  0
  2  3  1  0  0  0
  2  4  1  0  0  0
  2 24  1  0  0  0
  3 25  1  0  0  0
  3 26  1  0  0  0
  3 27  1  0  0  0
  4  9  2  0  0  0
  4  5  1  0  0  0
  5  6  2  0  0  0
  5 28  1  0  0  0
  6  7  1  0  0  0
  6 29  1  0  0  0
  7  8  2  0  0  0
  8  9  1  0  0  0
  8 30  1  0  0  0
  9 10  1  0  0  0
 10 11  1  0  0  0
 10 31  1  0  0  0
 11 12  2  0  0  0
 11 13  1  0  0  0
 13 14  1  0  0  0
 13 32  1  0  0  0
 13 33  1  0  0  0
 14 20  2  0  0  0
 14 15  1  0  0  0
 15 16  2  0  0  0
 15 34  1  0  0  0
 16 17  1  0  0  0
 16 35  1  0  0  0
 17 18  2  0  0  0
 17 36  1  0  0  0
 18 19  1  0  0  0
 18 20  1  0  0  0
 20 37  1  0  0  0
M  END
> <r_i_docking_score>
-5.56751426164974

$$$$
ligprep_5.maegz:362
                    3D
 Schrodinger Suite 2020-4.
 37 39  0  0  1  0            999 V2000
    9.5698   -2.6754   24.1149 C   0  0  0  0  0  0
    9.6595   -1.7169   23.0069 N   0  0  0  0  0  0
    8.6142   -1.5606   22.1395 C   0  0  0  0  0  0
    7.5496   -2.1680   22.2809 O   0  0  0  0  0  0
    8.7701   -0.6364   20.9074 C   0  0  0  0  0  0
    7.5002    0.0673   20.4285 C   0  0  0  0  0  0
    7.0692   -0.0906   19.1066 C   0  0  0  0  0  0
    5.9627    0.6139   18.6321 C   0  0  0  0  0  0
    5.2786    1.4885   19.4756 C   0  0  0  0  0  0
    5.7008    1.6541   20.7948 C   0  0  0  0  0  0
    4.8675    2.7469   21.8372 Cl  0  0  0  0  0  0
    6.8070    0.9464   21.2694 C   0  0  0  0  0  0
   10.9021   -1.0756   22.8248 C   0  0  0  0  0  0
   11.9754   -1.8100   22.3079 C   0  0  0  0  0  0
   13.1960   -1.2863   22.0494 N   0  0  0  0  0  0
   13.3762    0.0281   22.3081 C   0  0  0  0  0  0
   12.3811    0.8891   22.8202 C   0  0  0  0  0  0
   12.5968    2.2736   23.0187 C   0  0  0  0  0  0
   11.5694    3.0754   23.5079 C   0  0  0  0  0  0
   10.3366    2.5239   23.8377 C   0  0  0  0  0  0
   10.0978    1.1642   23.6565 C   0  0  0  0  0  0
   11.1055    0.3159   23.1174 C   0  0  0  0  0  0
   10.5486   -3.0930   24.3561 H   0  0  0  0  0  0
    9.1840   -2.1802   25.0067 H   0  0  0  0  0  0
    8.9126   -3.5150   23.8801 H   0  0  0  0  0  0
    9.1694   -1.2528   20.1032 H   0  0  0  0  0  0
    9.4977    0.1496   21.0886 H   0  0  0  0  0  0
    7.5967   -0.7505   18.4314 H   0  0  0  0  0  0
    5.6431    0.4907   17.6074 H   0  0  0  0  0  0
    4.4307    2.0452   19.1014 H   0  0  0  0  0  0
    7.1332    1.0933   22.2881 H   0  0  0  0  0  0
   11.8543   -2.8536   22.0570 H   0  0  0  0  0  0
   14.3494    0.4296   22.0660 H   0  0  0  0  0  0
   13.5584    2.7056   22.7787 H   0  0  0  0  0  0
   11.7350    4.1344   23.6444 H   0  0  0  0  0  0
    9.5540    3.1589   24.2276 H   0  0  0  0  0  0
    9.1302    0.7549   23.9066 H   0  0  0  0  0  0
  1  2  1  0  0  0
  1 23  1  0  0  0
  1 24  1  0  0  0
  1 25  1  0  0  0
  2  3  1  0  0  0
  2 13  1  0  0  0
  3  4  2  0  0  0
  3  5  1  0  0  0
  5  6  1  0  0  0
  5 26  1  0  0  0
  5 27  1  0  0  0
  6 12  2  0  0  0
  6  7  1  0  0  0
  7  8  2  0  0  0
  7 28  1  0  0  0
  8  9  1  0  0  0
  8 29  1  0  0  0
  9 10  2  0  0  0
  9 30  1  0  0  0
 10 11  1  0  0  0
 10 12  1  0  0  0
 12 31  1  0  0  0
 13 22  2  0  0  0
 13 14  1  0  0  0
 14 15  2  0  0  0
 14 32  1  0  0  0
 15 16  1  0  0  0
 16 17  2  0  0  0
 16 33  1  0  0  0
 17 22  1  0  0  0
 17 18  1  0  0  0
 18 19  2  0  0  0
 18 34  1  0  0  0
 19 20  1  0  0  0
 19 35  1  0  0  0
 20 21  2  0  0  0
 20 36  1  0  0  0
 21 22  1  0  0  0
 21 37  1  0  0  0
M  END
> <r_i_docking_score>
-7.13813074712239

$$$$
ligprep_5.maegz:363
                    3D
 Schrodinger Suite 2020-4.
 28 29  0  0  1  0            999 V2000
    8.8422    1.9559   21.1093 O   0  0  0  0  0  0
    8.0219    1.1789   21.9617 C   0  0  2  0  0  0
    8.8272    0.7488   23.2134 C   0  0  0  0  0  0
   10.1303    0.0032   22.9305 C   0  0  0  0  0  0
   10.1341   -1.3867   22.7726 C   0  0  0  0  0  0
   11.3190   -2.0523   22.4594 C   0  0  0  0  0  0
   12.5062   -1.3400   22.3075 C   0  0  0  0  0  0
   12.5121    0.0405   22.4985 C   0  0  0  0  0  0
   13.9734    0.9324   22.3083 Cl  0  0  0  0  0  0
   11.3308    0.7102   22.8108 C   0  0  0  0  0  0
    7.4031    0.0026   21.1603 C   0  0  0  0  0  0
    6.5929    0.4564   20.0277 N   0  0  0  0  0  0
    6.6684    0.1054   18.7100 C   0  0  0  0  0  0
    5.7653    0.7471   18.0149 N   0  0  0  0  0  0
    5.1696    1.4739   18.9496 C   0  0  0  0  0  0
    5.6013    1.3408   20.1874 N   0  0  0  0  0  0
    8.9877    2.8197   21.5083 H   0  0  0  0  0  0
    7.2097    1.8212   22.3038 H   0  0  0  0  0  0
    9.0607    1.6305   23.8139 H   0  0  0  0  0  0
    8.2028    0.1380   23.8664 H   0  0  0  0  0  0
    9.2183   -1.9522   22.8688 H   0  0  0  0  0  0
   11.3139   -3.1197   22.3146 H   0  0  0  0  0  0
   13.4158   -1.8598   22.0458 H   0  0  0  0  0  0
   11.3433    1.7831   22.9311 H   0  0  0  0  0  0
    6.7497   -0.5892   21.8013 H   0  0  0  0  0  0
    8.1766   -0.6674   20.7807 H   0  0  0  0  0  0
    7.4010   -0.6029   18.3477 H   0  0  0  0  0  0
    4.3691    2.1585   18.6994 H   0  0  0  0  0  0
  1  2  1  0  0  0
  1 17  1  0  0  0
  2  3  1  0  0  0
  2 11  1  0  0  0
  2 18  1  0  0  0
  3  4  1  0  0  0
  3 19  1  0  0  0
  3 20  1  0  0  0
  4 10  2  0  0  0
  4  5  1  0  0  0
  5  6  2  0  0  0
  5 21  1  0  0  0
  6  7  1  0  0  0
  6 22  1  0  0  0
  7  8  2  0  0  0
  7 23  1  0  0  0
  8  9  1  0  0  0
  8 10  1  0  0  0
 10 24  1  0  0  0
 11 12  1  0  0  0
 11 25  1  0  0  0
 11 26  1  0  0  0
 12 16  1  0  0  0
 12 13  1  0  0  0
 13 14  2  0  0  0
 13 27  1  0  0  0
 14 15  1  0  0  0
 15 16  2  0  0  0
 15 28  1  0  0  0
M  END
> <r_i_docking_score>
-6.62241466594883

$$$$
ligprep_5.maegz:364
                    3D
 Schrodinger Suite 2020-4.
 48 51  0  0  1  0            999 V2000
    7.2939   -5.5978   22.5477 C   0  0  0  0  0  0
    6.5861   -4.5738   21.8499 O   0  0  0  0  0  0
    6.9561   -3.2532   22.0271 C   0  0  0  0  0  0
    6.2548   -2.2720   21.3253 C   0  0  0  0  0  0
    6.6131   -0.9337   21.4883 C   0  0  0  0  0  0
    7.6731   -0.6093   22.3357 C   0  0  0  0  0  0
    8.3408   -1.6466   22.9999 C   0  0  0  0  0  0
    9.3877   -1.4241   23.8604 O   0  0  0  0  0  0
   10.5076   -0.8176   23.3537 C   0  0  0  0  0  0
   11.5334   -1.5927   22.8147 C   0  0  0  0  0  0
   12.6753   -0.9777   22.3054 C   0  0  0  0  0  0
   13.9174   -1.9356   21.5898 Cl  0  0  0  0  0  0
   12.7971    0.4131   22.3367 C   0  0  0  0  0  0
   11.7746    1.2052   22.8680 C   0  0  0  0  0  0
   11.9410    2.6043   22.7827 N   0  0  0  0  0  0
   11.2593    3.5669   23.4405 C   0  0  0  0  0  0
   10.4255    3.3355   24.3128 O   0  0  0  0  0  0
   11.5976    5.0243   23.0704 C   0  0  0  0  0  0
   10.6175    6.0353   23.6906 C   0  0  0  0  0  0
    9.4287    6.3406   23.0181 C   0  0  0  0  0  0
    8.4621    7.1471   23.5079 N   0  0  0  0  0  0
    8.6671    7.6937   24.7231 C   0  0  0  0  0  0
    9.8116    7.4706   25.5214 C   0  0  0  0  0  0
    9.9704    8.0570   26.8006 C   0  0  0  0  0  0
   11.1131    7.7949   27.5486 C   0  0  0  0  0  0
   12.1021    6.9537   27.0531 C   0  0  0  0  0  0
   11.9697    6.3611   25.7989 C   0  0  0  0  0  0
   10.8248    6.6053   24.9942 C   0  0  0  0  0  0
   10.6334    0.5721   23.3913 C   0  0  0  0  0  0
    7.9857   -2.9482   22.8670 N   0  0  0  0  0  0
    6.8989   -6.5721   22.2588 H   0  0  0  0  0  0
    8.3578   -5.5887   22.3064 H   0  0  0  0  0  0
    7.1780   -5.4982   23.6287 H   0  0  0  0  0  0
    5.4553   -2.5461   20.6558 H   0  0  0  0  0  0
    6.0735   -0.1561   20.9637 H   0  0  0  0  0  0
    7.9595    0.4226   22.4724 H   0  0  0  0  0  0
   11.4340   -2.6685   22.7756 H   0  0  0  0  0  0
   13.6785    0.8739   21.9143 H   0  0  0  0  0  0
   12.6662    2.9113   22.1541 H   0  0  0  0  0  0
   11.5676    5.1219   21.9845 H   0  0  0  0  0  0
   12.6245    5.2531   23.3480 H   0  0  0  0  0  0
    9.2139    5.9116   22.0488 H   0  0  0  0  0  0
    7.8737    8.3285   25.0898 H   0  0  0  0  0  0
    9.1974    8.7022   27.1943 H   0  0  0  0  0  0
   11.2309    8.2439   28.5252 H   0  0  0  0  0  0
   12.9792    6.7558   27.6528 H   0  0  0  0  0  0
   12.7529    5.7091   25.4457 H   0  0  0  0  0  0
    9.8079    1.1312   23.8008 H   0  0  0  0  0  0
  1  2  1  0  0  0
  1 31  1  0  0  0
  1 32  1  0  0  0
  1 33  1  0  0  0
  2  3  1  0  0  0
  3 30  2  0  0  0
  3  4  1  0  0  0
  4  5  2  0  0  0
  4 34  1  0  0  0
  5  6  1  0  0  0
  5 35  1  0  0  0
  6  7  2  0  0  0
  6 36  1  0  0  0
  7  8  1  0  0  0
  7 30  1  0  0  0
  8  9  1  0  0  0
  9 29  2  0  0  0
  9 10  1  0  0  0
 10 11  2  0  0  0
 10 37  1  0  0  0
 11 12  1  0  0  0
 11 13  1  0  0  0
 13 14  2  0  0  0
 13 38  1  0  0  0
 14 15  1  0  0  0
 14 29  1  0  0  0
 15 16  1  0  0  0
 15 39  1  0  0  0
 16 17  2  0  0  0
 16 18  1  0  0  0
 18 19  1  0  0  0
 18 40  1  0  0  0
 18 41  1  0  0  0
 19 28  2  0  0  0
 19 20  1  0  0  0
 20 21  2  0  0  0
 20 42  1  0  0  0
 21 22  1  0  0  0
 22 23  2  0  0  0
 22 43  1  0  0  0
 23 28  1  0  0  0
 23 24  1  0  0  0
 24 25  2  0  0  0
 24 44  1  0  0  0
 25 26  1  0  0  0
 25 45  1  0  0  0
 26 27  2  0  0  0
 26 46  1  0  0  0
 27 28  1  0  0  0
 27 47  1  0  0  0
 29 48  1  0  0  0
M  END
> <r_i_docking_score>
-6.36060381545444

$$$$
ligprep_5.maegz:365
                    3D
 Schrodinger Suite 2020-4.
 39 42  0  0  1  0            999 V2000
    9.4402    1.9472   21.3408 O   0  0  0  0  0  0
    9.0978    1.8723   22.5227 C   0  0  0  0  0  0
    7.8143    1.8432   22.9426 N   0  0  0  0  0  0
    6.6667    2.0162   22.1503 C   0  0  0  0  0  0
    5.7057    2.9004   22.6533 C   0  0  0  0  0  0
    4.5883    3.2697   21.9888 N   0  0  0  0  0  0
    4.3987    2.7470   20.7590 C   0  0  0  0  0  0
    5.2572    1.8096   20.1479 C   0  0  0  0  0  0
    5.0078    1.2916   18.8596 C   0  0  0  0  0  0
    5.8676    0.3500   18.3077 C   0  0  0  0  0  0
    6.9591   -0.1155   19.0259 C   0  0  0  0  0  0
    7.2268    0.3725   20.2991 C   0  0  0  0  0  0
    6.4135    1.3893   20.8787 C   0  0  0  0  0  0
   10.1703    1.8751   23.6393 C   0  0  2  0  0  0
   10.6250    3.3246   23.9277 C   0  0  0  0  0  0
   11.6422    3.8282   22.8910 C   0  0  0  0  0  0
   12.7975    2.9919   22.8679 O   0  0  0  0  0  0
   12.5599    1.6334   22.7852 C   0  0  0  0  0  0
   13.6307    0.8704   22.3284 C   0  0  0  0  0  0
   13.5323   -0.5173   22.3046 C   0  0  0  0  0  0
   12.3549   -1.1363   22.7079 C   0  0  0  0  0  0
   12.2490   -2.8488   22.7081 Cl  0  0  0  0  0  0
   11.2776   -0.3758   23.1503 C   0  0  0  0  0  0
   11.3637    1.0199   23.2128 C   0  0  0  0  0  0
    7.6680    1.9221   23.9353 H   0  0  0  0  0  0
    5.8430    3.3843   23.6088 H   0  0  0  0  0  0
    3.5270    3.0963   20.2246 H   0  0  0  0  0  0
    4.1449    1.6352   18.3078 H   0  0  0  0  0  0
    5.6783   -0.0361   17.3163 H   0  0  0  0  0  0
    7.6126   -0.8538   18.5851 H   0  0  0  0  0  0
    8.0711   -0.0240   20.8385 H   0  0  0  0  0  0
    9.6815    1.4663   24.5263 H   0  0  0  0  0  0
   11.1122    3.3393   24.8970 H   0  0  0  0  0  0
    9.7798    4.0130   23.9831 H   0  0  0  0  0  0
   11.9507    4.8483   23.1202 H   0  0  0  0  0  0
   11.1860    3.8395   21.9079 H   0  0  0  0  0  0
   14.5420    1.3582   22.0154 H   0  0  0  0  0  0
   14.3671   -1.1159   21.9718 H   0  0  0  0  0  0
   10.3678   -0.8731   23.4540 H   0  0  0  0  0  0
  1  2  2  0  0  0
  2  3  1  0  0  0
  2 14  1  0  0  0
  3  4  1  0  0  0
  3 25  1  0  0  0
  4 13  2  0  0  0
  4  5  1  0  0  0
  5  6  2  0  0  0
  5 26  1  0  0  0
  6  7  1  0  0  0
  7  8  2  0  0  0
  7 27  1  0  0  0
  8 13  1  0  0  0
  8  9  1  0  0  0
  9 10  2  0  0  0
  9 28  1  0  0  0
 10 11  1  0  0  0
 10 29  1  0  0  0
 11 12  2  0  0  0
 11 30  1  0  0  0
 12 13  1  0  0  0
 12 31  1  0  0  0
 14 24  1  0  0  0
 14 15  1  0  0  0
 14 32  1  0  0  0
 15 16  1  0  0  0
 15 33  1  0  0  0
 15 34  1  0  0  0
 16 17  1  0  0  0
 16 35  1  0  0  0
 16 36  1  0  0  0
 17 18  1  0  0  0
 18 24  2  0  0  0
 18 19  1  0  0  0
 19 20  2  0  0  0
 19 37  1  0  0  0
 20 21  1  0  0  0
 20 38  1  0  0  0
 21 22  1  0  0  0
 21 23  2  0  0  0
 23 24  1  0  0  0
 23 39  1  0  0  0
M  END
> <r_i_docking_score>
-6.43341621671697

$$$$
ligprep_5.maegz:366
                    3D
 Schrodinger Suite 2020-4.
 46 49  0  0  1  0            999 V2000
    5.5716   -4.2157   22.0504 O   0  0  0  0  0  0
    6.3178   -4.6332   22.9389 C   0  0  0  0  0  0
    7.8296   -4.3478   22.8744 C   0  0  0  0  0  0
    8.2275   -2.8689   22.8420 C   0  0  0  0  0  0
    9.1588   -2.3748   23.7624 C   0  0  0  0  0  0
    9.6102   -1.0575   23.6711 C   0  0  0  0  0  0
   10.7693   -0.4530   24.7984 Cl  0  0  0  0  0  0
    9.1381   -0.2291   22.6546 C   0  0  0  0  0  0
    8.2055   -0.6939   21.7278 C   0  0  0  0  0  0
    7.8384    0.1913   20.7303 O   0  0  0  0  0  0
    6.6604    0.0063   19.9962 C   0  0  2  0  0  0
    6.7860    0.7624   18.6980 C   0  0  0  0  0  0
    5.3888    1.3492   18.5232 C   0  0  0  0  0  0
    4.7622    1.3774   19.9042 C   0  0  0  0  0  0
    3.7240    1.9469   20.2279 O   0  0  0  0  0  0
    5.5695    0.6296   20.6666 N   0  0  0  0  0  0
    7.7566   -2.0203   21.8344 C   0  0  0  0  0  0
    5.9186   -5.3726   23.9954 N   0  0  0  0  0  0
    4.6426   -5.8989   24.2970 C   0  0  0  0  0  0
    3.6289   -6.0524   23.3359 C   0  0  0  0  0  0
    2.4152   -6.5935   23.5860 N   0  0  0  0  0  0
    2.1707   -7.0148   24.8447 C   0  0  0  0  0  0
    3.0920   -6.9333   25.9102 C   0  0  0  0  0  0
    2.7901   -7.3978   27.2132 C   0  0  0  0  0  0
    3.7424   -7.3074   28.2236 C   0  0  0  0  0  0
    4.9936   -6.7605   27.9679 C   0  0  0  0  0  0
    5.3139   -6.2826   26.6994 C   0  0  0  0  0  0
    4.3730   -6.3598   25.6309 C   0  0  0  0  0  0
    8.2046   -4.8166   21.9657 H   0  0  0  0  0  0
    8.3454   -4.8508   23.6940 H   0  0  0  0  0  0
    9.5544   -3.0157   24.5365 H   0  0  0  0  0  0
    9.5011    0.7853   22.5783 H   0  0  0  0  0  0
    6.4372   -1.0392   19.7873 H   0  0  0  0  0  0
    7.0858    0.0803   17.9080 H   0  0  0  0  0  0
    7.5360    1.5456   18.7973 H   0  0  0  0  0  0
    4.7706    0.7156   17.8867 H   0  0  0  0  0  0
    5.3905    2.3467   18.0850 H   0  0  0  0  0  0
    5.3383    0.4166   21.6265 H   0  0  0  0  0  0
    7.0794   -2.4375   21.1091 H   0  0  0  0  0  0
    6.6291   -5.5844   24.6781 H   0  0  0  0  0  0
    3.7746   -5.7681   22.3078 H   0  0  0  0  0  0
    1.1944   -7.4439   25.0172 H   0  0  0  0  0  0
    1.8235   -7.8372   27.4155 H   0  0  0  0  0  0
    3.5146   -7.6806   29.2114 H   0  0  0  0  0  0
    5.7266   -6.7122   28.7603 H   0  0  0  0  0  0
    6.2947   -5.8637   26.5332 H   0  0  0  0  0  0
  1  2  2  0  0  0
  2  3  1  0  0  0
  2 18  1  0  0  0
  3  4  1  0  0  0
  3 29  1  0  0  0
  3 30  1  0  0  0
  4 17  2  0  0  0
  4  5  1  0  0  0
  5  6  2  0  0  0
  5 31  1  0  0  0
  6  7  1  0  0  0
  6  8  1  0  0  0
  8  9  2  0  0  0
  8 32  1  0  0  0
  9 10  1  0  0  0
  9 17  1  0  0  0
 10 11  1  0  0  0
 11 16  1  0  0  0
 11 12  1  0  0  0
 11 33  1  0  0  0
 12 13  1  0  0  0
 12 34  1  0  0  0
 12 35  1  0  0  0
 13 14  1  0  0  0
 13 36  1  0  0  0
 13 37  1  0  0  0
 14 15  2  0  0  0
 14 16  1  0  0  0
 16 38  1  0  0  0
 17 39  1  0  0  0
 18 19  1  0  0  0
 18 40  1  0  0  0
 19 28  2  0  0  0
 19 20  1  0  0  0
 20 21  2  0  0  0
 20 41  1  0  0  0
 21 22  1  0  0  0
 22 23  2  0  0  0
 22 42  1  0  0  0
 23 28  1  0  0  0
 23 24  1  0  0  0
 24 25  2  0  0  0
 24 43  1  0  0  0
 25 26  1  0  0  0
 25 44  1  0  0  0
 26 27  2  0  0  0
 26 45  1  0  0  0
 27 28  1  0  0  0
 27 46  1  0  0  0
M  END
> <r_i_docking_score>
-5.72381808544837

$$$$
ligprep_5.maegz:367
                    3D
 Schrodinger Suite 2020-4.
 45 48  0  0  1  0            999 V2000
    9.1648   -2.0327   24.8784 O   0  0  0  0  0  0
    9.4485   -2.4615   23.7599 C   0  0  0  0  0  0
   10.6016   -1.8162   22.9796 C   0  0  0  0  0  0
   10.3777   -0.3203   22.7557 C   0  0  0  0  0  0
   11.4228    0.5799   22.9809 C   0  0  0  0  0  0
   11.2205    1.9481   22.8078 C   0  0  0  0  0  0
   12.5099    3.0550   23.1074 Cl  0  0  0  0  0  0
    9.9751    2.4219   22.3942 C   0  0  0  0  0  0
    8.9350    1.5373   22.1085 C   0  0  0  0  0  0
    7.7110    2.0603   21.7372 O   0  0  0  0  0  0
    6.9729    1.5445   20.7121 C   0  0  0  0  0  0
    7.3718    0.6439   19.7820 C   0  0  0  0  0  0
    6.4279    0.3295   18.7194 C   0  0  0  0  0  0
    5.2170    0.9316   18.7188 C   0  0  0  0  0  0
    4.7672    1.8136   19.7918 C   0  0  0  0  0  0
    3.6062    2.1848   19.9199 O   0  0  0  0  0  0
    5.7301    2.1191   20.7053 N   0  0  0  0  0  0
    9.1432    0.1679   22.3026 C   0  0  0  0  0  0
    8.7694   -3.4248   23.1074 N   0  0  0  0  0  0
    7.5844   -4.0628   23.5121 C   0  0  0  0  0  0
    6.5838   -4.1626   22.5386 C   0  0  0  0  0  0
    5.3599   -4.6965   22.7559 N   0  0  0  0  0  0
    5.1003   -5.1570   23.9991 C   0  0  0  0  0  0
    6.0226   -5.1507   25.0700 C   0  0  0  0  0  0
    5.6959   -5.6471   26.3551 C   0  0  0  0  0  0
    6.6551   -5.6529   27.3629 C   0  0  0  0  0  0
    7.9495   -5.2159   27.1080 C   0  0  0  0  0  0
    8.2946   -4.7130   25.8596 C   0  0  0  0  0  0
    7.3297   -4.6226   24.8147 C   0  0  0  0  0  0
   10.7415   -2.2963   22.0084 H   0  0  0  0  0  0
   11.5229   -1.9920   23.5346 H   0  0  0  0  0  0
   12.3875    0.2244   23.3112 H   0  0  0  0  0  0
    9.8146    3.4847   22.2885 H   0  0  0  0  0  0
    8.3593    0.2097   19.7787 H   0  0  0  0  0  0
    6.7139   -0.3281   17.9089 H   0  0  0  0  0  0
    4.5225    0.7475   17.9147 H   0  0  0  0  0  0
    5.4338    2.7409   21.4396 H   0  0  0  0  0  0
    8.3247   -0.5149   22.1275 H   0  0  0  0  0  0
    9.0568   -3.6094   22.1556 H   0  0  0  0  0  0
    6.7446   -3.7741   21.5430 H   0  0  0  0  0  0
    4.1111   -5.5631   24.1533 H   0  0  0  0  0  0
    4.7030   -6.0311   26.5470 H   0  0  0  0  0  0
    6.4054   -6.0446   28.3384 H   0  0  0  0  0  0
    8.6953   -5.2706   27.8887 H   0  0  0  0  0  0
    9.3105   -4.3922   25.6913 H   0  0  0  0  0  0
  1  2  2  0  0  0
  2  3  1  0  0  0
  2 19  1  0  0  0
  3  4  1  0  0  0
  3 30  1  0  0  0
  3 31  1  0  0  0
  4 18  2  0  0  0
  4  5  1  0  0  0
  5  6  2  0  0  0
  5 32  1  0  0  0
  6  7  1  0  0  0
  6  8  1  0  0  0
  8  9  2  0  0  0
  8 33  1  0  0  0
  9 10  1  0  0  0
  9 18  1  0  0  0
 10 11  1  0  0  0
 11 17  1  0  0  0
 11 12  2  0  0  0
 12 13  1  0  0  0
 12 34  1  0  0  0
 13 14  2  0  0  0
 13 35  1  0  0  0
 14 15  1  0  0  0
 14 36  1  0  0  0
 15 16  2  0  0  0
 15 17  1  0  0  0
 17 37  1  0  0  0
 18 38  1  0  0  0
 19 20  1  0  0  0
 19 39  1  0  0  0
 20 29  2  0  0  0
 20 21  1  0  0  0
 21 22  2  0  0  0
 21 40  1  0  0  0
 22 23  1  0  0  0
 23 24  2  0  0  0
 23 41  1  0  0  0
 24 29  1  0  0  0
 24 25  1  0  0  0
 25 26  2  0  0  0
 25 42  1  0  0  0
 26 27  1  0  0  0
 26 43  1  0  0  0
 27 28  2  0  0  0
 27 44  1  0  0  0
 28 29  1  0  0  0
 28 45  1  0  0  0
M  END
> <r_i_docking_score>
-6.56487235678267

$$$$
ligprep_5.maegz:368
                    3D
 Schrodinger Suite 2020-4.
 44 47  0  0  1  0            999 V2000
    8.7696    1.5467   21.2793 O   0  0  0  0  0  0
    8.6175    1.1980   22.4534 C   0  0  0  0  0  0
    7.2109    0.8677   22.9707 C   0  0  0  0  0  0
    6.7604   -0.5372   22.5840 C   0  0  0  0  0  0
    6.3938   -0.8222   21.2642 C   0  0  0  0  0  0
    5.9706   -2.1031   20.9130 C   0  0  0  0  0  0
    5.5696   -2.4528   19.2738 Cl  0  0  0  0  0  0
    5.9145   -3.1101   21.8765 C   0  0  0  0  0  0
    6.2835   -2.8429   23.1941 C   0  0  0  0  0  0
    6.1705   -3.8535   24.1213 O   0  0  0  0  0  0
    7.2162   -4.1755   24.9612 C   0  0  0  0  0  0
    8.5691   -4.0516   24.6065 C   0  0  0  0  0  0
    9.5612   -4.4494   25.5063 C   0  0  0  0  0  0
    9.1699   -4.9518   26.7440 C   0  0  0  0  0  0
    7.8710   -5.0907   27.1085 N   0  0  0  0  0  0
    6.9208   -4.7126   26.2163 C   0  0  0  0  0  0
    6.7033   -1.5535   23.5458 C   0  0  0  0  0  0
    9.6238    1.0801   23.3444 N   0  0  0  0  0  0
   10.9560    1.3856   23.0450 C   0  0  0  0  0  0
   11.8313    0.3479   22.7075 C   0  0  0  0  0  0
   13.1209    0.5421   22.3417 N   0  0  0  0  0  0
   13.5695    1.8169   22.3081 C   0  0  0  0  0  0
   12.8095    2.9499   22.6798 C   0  0  0  0  0  0
   13.3433    4.2624   22.6858 C   0  0  0  0  0  0
   12.5539    5.3337   23.0923 C   0  0  0  0  0  0
   11.2333    5.1329   23.4806 C   0  0  0  0  0  0
   10.6781    3.8550   23.4720 C   0  0  0  0  0  0
   11.4536    2.7301   23.0724 C   0  0  0  0  0  0
    7.1731    0.9904   24.0543 H   0  0  0  0  0  0
    6.5098    1.5959   22.5609 H   0  0  0  0  0  0
    6.4410   -0.0490   20.5098 H   0  0  0  0  0  0
    5.5996   -4.1059   21.6061 H   0  0  0  0  0  0
    8.8494   -3.6690   23.6361 H   0  0  0  0  0  0
   10.6068   -4.3734   25.2459 H   0  0  0  0  0  0
    9.9094   -5.2581   27.4697 H   0  0  0  0  0  0
    5.8946   -4.8474   26.5240 H   0  0  0  0  0  0
    6.9723   -1.3476   24.5713 H   0  0  0  0  0  0
    9.4333    0.6608   24.2416 H   0  0  0  0  0  0
   11.4890   -0.6771   22.6814 H   0  0  0  0  0  0
   14.5966    1.9477   21.9991 H   0  0  0  0  0  0
   14.3703    4.4229   22.3891 H   0  0  0  0  0  0
   12.9705    6.3302   23.1066 H   0  0  0  0  0  0
   10.6303    5.9772   23.7817 H   0  0  0  0  0  0
    9.6485    3.7171   23.7672 H   0  0  0  0  0  0
  1  2  2  0  0  0
  2  3  1  0  0  0
  2 18  1  0  0  0
  3  4  1  0  0  0
  3 29  1  0  0  0
  3 30  1  0  0  0
  4 17  2  0  0  0
  4  5  1  0  0  0
  5  6  2  0  0  0
  5 31  1  0  0  0
  6  7  1  0  0  0
  6  8  1  0  0  0
  8  9  2  0  0  0
  8 32  1  0  0  0
  9 10  1  0  0  0
  9 17  1  0  0  0
 10 11  1  0  0  0
 11 16  2  0  0  0
 11 12  1  0  0  0
 12 13  2  0  0  0
 12 33  1  0  0  0
 13 14  1  0  0  0
 13 34  1  0  0  0
 14 15  2  0  0  0
 14 35  1  0  0  0
 15 16  1  0  0  0
 16 36  1  0  0  0
 17 37  1  0  0  0
 18 19  1  0  0  0
 18 38  1  0  0  0
 19 28  2  0  0  0
 19 20  1  0  0  0
 20 21  2  0  0  0
 20 39  1  0  0  0
 21 22  1  0  0  0
 22 23  2  0  0  0
 22 40  1  0  0  0
 23 28  1  0  0  0
 23 24  1  0  0  0
 24 25  2  0  0  0
 24 41  1  0  0  0
 25 26  1  0  0  0
 25 42  1  0  0  0
 26 27  2  0  0  0
 26 43  1  0  0  0
 27 28  1  0  0  0
 27 44  1  0  0  0
M  END
> <r_i_docking_score>
-6.53244205507376

$$$$
ligprep_5.maegz:369
                    3D
 Schrodinger Suite 2020-4.
 33 35  0  0  1  0            999 V2000
    8.7397    1.1477   20.7190 O   0  0  0  0  0  0
    8.3622    0.1772   21.3808 C   0  0  0  0  0  0
    6.9318   -0.3601   21.2138 C   0  0  0  0  0  0
    6.0243    0.5912   20.4343 C   0  0  0  0  0  0
    5.9911    0.5492   19.0355 C   0  0  0  0  0  0
    5.1717    1.4311   18.3317 C   0  0  0  0  0  0
    4.3698    2.3464   19.0184 C   0  0  0  0  0  0
    4.4072    2.3991   20.4102 C   0  0  0  0  0  0
    3.4013    3.5059   21.2711 Cl  0  0  0  0  0  0
    5.2589    1.5472   21.1109 C   0  0  0  0  0  0
    9.1598   -0.5066   22.2317 N   0  0  0  0  0  0
   10.5314   -0.2637   22.4330 C   0  0  0  0  0  0
   11.4009   -1.3522   22.2902 C   0  0  0  0  0  0
   12.7520   -1.2525   22.3077 N   0  0  0  0  0  0
   13.2835   -0.0252   22.5004 C   0  0  0  0  0  0
   12.5300    1.1485   22.7011 C   0  0  0  0  0  0
   13.1694    2.3444   22.8175 N   0  0  0  0  0  0
   12.4194    3.4544   23.0136 C   0  0  0  0  0  0
   11.0328    3.4345   23.1160 C   0  0  0  0  0  0
   10.3641    2.2208   22.9607 C   0  0  0  0  0  0
   11.1040    1.0292   22.7076 C   0  0  0  0  0  0
    6.4987   -0.5616   22.1943 H   0  0  0  0  0  0
    6.9921   -1.3135   20.6844 H   0  0  0  0  0  0
    6.6097   -0.1508   18.4920 H   0  0  0  0  0  0
    5.1696    1.4084   17.2502 H   0  0  0  0  0  0
    3.7335    3.0249   18.4654 H   0  0  0  0  0  0
    5.2886    1.5961   22.1913 H   0  0  0  0  0  0
    8.8091   -1.3909   22.5653 H   0  0  0  0  0  0
   11.0222   -2.3409   22.0732 H   0  0  0  0  0  0
   14.3609    0.0378   22.4740 H   0  0  0  0  0  0
   12.9616    4.3861   23.1001 H   0  0  0  0  0  0
   10.4751    4.3466   23.2777 H   0  0  0  0  0  0
    9.2866    2.1919   23.0130 H   0  0  0  0  0  0
  1  2  2  0  0  0
  2  3  1  0  0  0
  2 11  1  0  0  0
  3  4  1  0  0  0
  3 22  1  0  0  0
  3 23  1  0  0  0
  4 10  2  0  0  0
  4  5  1  0  0  0
  5  6  2  0  0  0
  5 24  1  0  0  0
  6  7  1  0  0  0
  6 25  1  0  0  0
  7  8  2  0  0  0
  7 26  1  0  0  0
  8  9  1  0  0  0
  8 10  1  0  0  0
 10 27  1  0  0  0
 11 12  1  0  0  0
 11 28  1  0  0  0
 12 21  2  0  0  0
 12 13  1  0  0  0
 13 14  2  0  0  0
 13 29  1  0  0  0
 14 15  1  0  0  0
 15 16  2  0  0  0
 15 30  1  0  0  0
 16 21  1  0  0  0
 16 17  1  0  0  0
 17 18  2  0  0  0
 18 19  1  0  0  0
 18 31  1  0  0  0
 19 20  2  0  0  0
 19 32  1  0  0  0
 20 21  1  0  0  0
 20 33  1  0  0  0
M  END
> <r_i_docking_score>
-6.30329118945799

$$$$
ligprep_5.maegz:370
                    3D
 Schrodinger Suite 2020-4.
 36 37  0  0  1  0            999 V2000
    8.4670    1.9596   25.0764 C   0  0  0  0  0  0
    9.9146    2.2056   24.6046 C   0  0  2  0  0  0
   10.0201    3.4748   23.7511 C   0  0  0  0  0  0
   11.4861    3.8136   23.4400 C   0  0  0  0  0  0
   12.2485    2.6205   23.0247 N   0  0  0  0  0  0
   11.8919    1.3193   23.1308 C   0  0  0  0  0  0
   12.6184    0.4565   22.6418 O   0  0  0  0  0  0
   10.5354    0.9963   23.8444 C   0  0  2  0  0  0
    9.6336    0.1942   22.9863 N   0  0  0  0  0  0
    9.1407    0.5188   21.7746 C   0  0  0  0  0  0
    9.4515    1.5430   21.1640 O   0  0  0  0  0  0
    8.1434   -0.4741   21.1563 C   0  0  0  0  0  0
    7.0377    0.2171   20.3584 C   0  0  0  0  0  0
    6.9537    0.0451   18.9730 C   0  0  0  0  0  0
    5.9698    0.7088   18.2398 C   0  0  0  0  0  0
    5.0631    1.5474   18.8841 C   0  0  0  0  0  0
    5.1297    1.7143   20.2660 C   0  0  0  0  0  0
    4.0017    2.7472   21.0645 Cl  0  0  0  0  0  0
    6.1107    1.0484   21.0014 C   0  0  0  0  0  0
    7.7792    1.8521   24.2365 H   0  0  0  0  0  0
    8.3989    1.0560   25.6829 H   0  0  0  0  0  0
    8.1082    2.7870   25.6896 H   0  0  0  0  0  0
   10.5141    2.3474   25.5046 H   0  0  0  0  0  0
    9.5661    4.3189   24.2713 H   0  0  0  0  0  0
    9.4274    3.3887   22.8408 H   0  0  0  0  0  0
   11.5414    4.5608   22.6464 H   0  0  0  0  0  0
   11.9700    4.2353   24.3191 H   0  0  0  0  0  0
   13.1149    2.7768   22.5316 H   0  0  0  0  0  0
   10.8263    0.2734   24.6078 H   0  0  0  0  0  0
    9.2293   -0.6160   23.4306 H   0  0  0  0  0  0
    8.7098   -1.1470   20.5106 H   0  0  0  0  0  0
    7.6869   -1.0974   21.9261 H   0  0  0  0  0  0
    7.6580   -0.5894   18.4532 H   0  0  0  0  0  0
    5.9203    0.5839   17.1679 H   0  0  0  0  0  0
    4.3156    2.0750   18.3085 H   0  0  0  0  0  0
    6.1568    1.1904   22.0711 H   0  0  0  0  0  0
  1  2  1  0  0  0
  1 20  1  0  0  0
  1 21  1  0  0  0
  1 22  1  0  0  0
  2  8  1  0  0  0
  2  3  1  0  0  0
  2 23  1  0  0  0
  3  4  1  0  0  0
  3 24  1  0  0  0
  3 25  1  0  0  0
  4  5  1  0  0  0
  4 26  1  0  0  0
  4 27  1  0  0  0
  5  6  1  0  0  0
  5 28  1  0  0  0
  6  7  2  0  0  0
  6  8  1  0  0  0
  8  9  1  0  0  0
  8 29  1  0  0  0
  9 10  1  0  0  0
  9 30  1  0  0  0
 10 11  2  0  0  0
 10 12  1  0  0  0
 12 13  1  0  0  0
 12 31  1  0  0  0
 12 32  1  0  0  0
 13 19  2  0  0  0
 13 14  1  0  0  0
 14 15  2  0  0  0
 14 33  1  0  0  0
 15 16  1  0  0  0
 15 34  1  0  0  0
 16 17  2  0  0  0
 16 35  1  0  0  0
 17 18  1  0  0  0
 17 19  1  0  0  0
 19 36  1  0  0  0
M  END
> <r_i_docking_score>
-5.66177132986945

$$$$
ligprep_5.maegz:371
                    3D
 Schrodinger Suite 2020-4.
 32 34  0  0  1  0            999 V2000
   11.0168   -1.2512   23.9079 O   0  0  0  0  0  0
   10.0974   -0.4344   23.8224 C   0  0  0  0  0  0
    8.6429   -0.8358   24.1365 C   0  0  0  0  0  0
    8.4533   -2.3090   24.4991 C   0  0  0  0  0  0
    8.7690   -2.7688   25.7826 C   0  0  0  0  0  0
    8.6127   -4.1164   26.1111 C   0  0  0  0  0  0
    8.1247   -5.0110   25.1594 C   0  0  0  0  0  0
    7.7997   -4.5608   23.8777 C   0  0  0  0  0  0
    7.1702   -5.6593   22.7009 Cl  0  0  0  0  0  0
    7.9798   -3.2165   23.5451 C   0  0  0  0  0  0
   10.2596    0.8579   23.4677 N   0  0  0  0  0  0
   11.4678    1.4450   23.1095 C   0  0  0  0  0  0
   12.6537    0.9022   22.5989 C   0  0  0  0  0  0
   13.5696    1.8005   22.3082 N   0  0  0  0  0  0
   13.0102    2.9848   22.6691 C   0  0  0  0  0  0
   13.5403    4.2908   22.6324 C   0  0  0  0  0  0
   12.7550    5.3556   23.0771 C   0  0  0  0  0  0
   11.4580    5.1466   23.5382 C   0  0  0  0  0  0
   10.9265    3.8582   23.5719 C   0  0  0  0  0  0
   11.6996    2.8021   23.1542 N   0  0  0  0  0  0
    8.0224   -0.5897   23.2721 H   0  0  0  0  0  0
    8.2869   -0.2230   24.9680 H   0  0  0  0  0  0
    9.1478   -2.0804   26.5244 H   0  0  0  0  0  0
    8.8695   -4.4696   27.0992 H   0  0  0  0  0  0
    8.0003   -6.0505   25.4179 H   0  0  0  0  0  0
    7.7468   -2.8846   22.5439 H   0  0  0  0  0  0
    9.4263    1.4151   23.3592 H   0  0  0  0  0  0
   12.8323   -0.1474   22.4116 H   0  0  0  0  0  0
   14.5488    4.4605   22.2880 H   0  0  0  0  0  0
   13.1638    6.3569   23.0716 H   0  0  0  0  0  0
   10.8643    5.9872   23.8713 H   0  0  0  0  0  0
    9.9302    3.6338   23.9244 H   0  0  0  0  0  0
  1  2  2  0  0  0
  2  3  1  0  0  0
  2 11  1  0  0  0
  3  4  1  0  0  0
  3 21  1  0  0  0
  3 22  1  0  0  0
  4 10  2  0  0  0
  4  5  1  0  0  0
  5  6  2  0  0  0
  5 23  1  0  0  0
  6  7  1  0  0  0
  6 24  1  0  0  0
  7  8  2  0  0  0
  7 25  1  0  0  0
  8  9  1  0  0  0
  8 10  1  0  0  0
 10 26  1  0  0  0
 11 12  1  0  0  0
 11 27  1  0  0  0
 12 20  1  0  0  0
 12 13  2  0  0  0
 13 14  1  0  0  0
 13 28  1  0  0  0
 14 15  2  0  0  0
 15 20  1  0  0  0
 15 16  1  0  0  0
 16 17  2  0  0  0
 16 29  1  0  0  0
 17 18  1  0  0  0
 17 30  1  0  0  0
 18 19  2  0  0  0
 18 31  1  0  0  0
 19 20  1  0  0  0
 19 32  1  0  0  0
M  END
> <r_i_docking_score>
-6.49215059580465

$$$$
ligprep_5.maegz:372
                    3D
 Schrodinger Suite 2020-4.
 29 30  0  0  1  0            999 V2000
   12.3680   -2.3412   22.3090 C   0  0  0  0  0  0
   12.3131   -0.9000   22.4866 N   0  0  0  0  0  0
   13.3702   -0.0517   22.7050 C   0  0  0  0  0  0
   13.0272    1.2047   22.8382 N   0  0  0  0  0  0
   11.7141    1.1988   22.7081 C   0  0  0  0  0  0
   11.2119   -0.0774   22.4599 C   0  0  0  0  0  0
    9.9329   -0.5407   22.2057 N   0  0  0  0  0  0
    8.9932    0.1635   21.5424 C   0  0  0  0  0  0
    9.1623    1.3091   21.1094 O   0  0  0  0  0  0
    7.6590   -0.5724   21.3363 C   0  0  0  0  0  0
    6.6985    0.1637   20.4103 C   0  0  0  0  0  0
    6.8138    0.0283   19.0235 C   0  0  0  0  0  0
    5.9698    0.7465   18.1780 C   0  0  0  0  0  0
    5.0088    1.6000   18.7119 C   0  0  0  0  0  0
    4.8787    1.7311   20.0914 C   0  0  0  0  0  0
    3.6529    2.7515   20.7482 Cl  0  0  0  0  0  0
    5.7317    1.0252   20.9389 C   0  0  0  0  0  0
   13.4042   -2.6808   22.3070 H   0  0  0  0  0  0
   11.8455   -2.8283   23.1334 H   0  0  0  0  0  0
   11.9034   -2.6099   21.3615 H   0  0  0  0  0  0
   14.3698   -0.4482   22.7590 H   0  0  0  0  0  0
   11.1347    2.1102   22.7596 H   0  0  0  0  0  0
    9.7294   -1.4953   22.4555 H   0  0  0  0  0  0
    7.1889   -0.7028   22.3124 H   0  0  0  0  0  0
    7.8546   -1.5682   20.9343 H   0  0  0  0  0  0
    7.5654   -0.6211   18.5964 H   0  0  0  0  0  0
    6.0585    0.6502   17.1078 H   0  0  0  0  0  0
    4.3700    2.1715   18.0570 H   0  0  0  0  0  0
    5.6294    1.1436   22.0082 H   0  0  0  0  0  0
  1  2  1  0  0  0
  1 18  1  0  0  0
  1 19  1  0  0  0
  1 20  1  0  0  0
  2  6  1  0  0  0
  2  3  1  0  0  0
  3  4  2  0  0  0
  3 21  1  0  0  0
  4  5  1  0  0  0
  5  6  2  0  0  0
  5 22  1  0  0  0
  6  7  1  0  0  0
  7  8  1  0  0  0
  7 23  1  0  0  0
  8  9  2  0  0  0
  8 10  1  0  0  0
 10 11  1  0  0  0
 10 24  1  0  0  0
 10 25  1  0  0  0
 11 17  2  0  0  0
 11 12  1  0  0  0
 12 13  2  0  0  0
 12 26  1  0  0  0
 13 14  1  0  0  0
 13 27  1  0  0  0
 14 15  2  0  0  0
 14 28  1  0  0  0
 15 16  1  0  0  0
 15 17  1  0  0  0
 17 29  1  0  0  0
M  END
> <r_i_docking_score>
-6.2254472314064

$$$$
ligprep_5.maegz:373
                    3D
 Schrodinger Suite 2020-4.
 55 58  0  0  1  0            999 V2000
    9.0090    0.4055   25.3927 O   0  0  0  0  0  0
    9.4204    0.1784   24.2515 C   0  0  0  0  0  0
    9.9416    1.1551   23.4751 N   0  0  0  0  0  0
   10.0713    2.5223   23.7821 C   0  0  0  0  0  0
    9.0543    3.2337   24.4374 C   0  0  0  0  0  0
    9.1096    4.5610   24.7001 N   0  0  0  0  0  0
   10.2056    5.2345   24.2854 C   0  0  0  0  0  0
   11.3001    4.6456   23.6126 C   0  0  0  0  0  0
   12.4311    5.3889   23.1975 C   0  0  0  0  0  0
   13.4840    4.7502   22.5479 C   0  0  0  0  0  0
   13.4391    3.3813   22.3080 C   0  0  0  0  0  0
   12.3411    2.6249   22.7078 C   0  0  0  0  0  0
   11.2356    3.2404   23.3586 C   0  0  0  0  0  0
    9.3933   -1.0715   23.6860 N   0  0  0  0  0  0
    9.8113   -1.3608   22.2935 C   0  0  0  0  0  0
    8.6735   -1.5533   21.2654 C   0  0  0  0  0  0
    7.9079   -0.2863   20.7950 C   0  0  0  0  0  0
    7.3129   -0.5027   19.3820 C   0  0  0  0  0  0
    6.6182    0.7620   18.8459 C   0  0  0  0  0  0
    5.5228    1.2595   19.8085 C   0  0  0  0  0  0
    6.0384    1.3990   21.2550 C   0  0  0  0  0  0
    6.7437    0.1133   21.7333 C   0  0  0  0  0  0
    8.7849   -2.1458   24.3758 C   0  0  0  0  0  0
    7.4278   -2.1120   24.7356 C   0  0  0  0  0  0
    6.8635   -3.1753   25.4411 C   0  0  0  0  0  0
    7.6468   -4.2734   25.7983 C   0  0  0  0  0  0
    8.9951   -4.3157   25.4360 C   0  0  0  0  0  0
    9.9776   -5.6526   25.9065 Cl  0  0  0  0  0  0
    9.5554   -3.2659   24.7084 C   0  0  0  0  0  0
   10.3178    0.8778   22.5823 H   0  0  0  0  0  0
    8.1490    2.7406   24.7580 H   0  0  0  0  0  0
   10.2159    6.2942   24.4986 H   0  0  0  0  0  0
   12.4802    6.4501   23.3982 H   0  0  0  0  0  0
   14.3523    5.3193   22.2449 H   0  0  0  0  0  0
   14.2779    2.8928   21.8341 H   0  0  0  0  0  0
   12.3363    1.5614   22.5230 H   0  0  0  0  0  0
   10.4031   -2.2770   22.3071 H   0  0  0  0  0  0
   10.5128   -0.6157   21.9205 H   0  0  0  0  0  0
    7.9805   -2.3295   21.5951 H   0  0  0  0  0  0
    9.1695   -1.9720   20.3897 H   0  0  0  0  0  0
    8.6049    0.5511   20.7386 H   0  0  0  0  0  0
    6.6190   -1.3435   19.3923 H   0  0  0  0  0  0
    8.0982   -0.8048   18.6882 H   0  0  0  0  0  0
    6.1887    0.5656   17.8632 H   0  0  0  0  0  0
    7.3587    1.5469   18.7112 H   0  0  0  0  0  0
    4.6856    0.5591   19.7867 H   0  0  0  0  0  0
    5.1277    2.2150   19.4602 H   0  0  0  0  0  0
    5.2072    1.6385   21.9202 H   0  0  0  0  0  0
    6.7301    2.2402   21.3177 H   0  0  0  0  0  0
    7.0990    0.2616   22.7480 H   0  0  0  0  0  0
    6.0281   -0.7071   21.8145 H   0  0  0  0  0  0
    6.8134   -1.2599   24.4879 H   0  0  0  0  0  0
    5.8207   -3.1382   25.7215 H   0  0  0  0  0  0
    7.2114   -5.0873   26.3608 H   0  0  0  0  0  0
   10.5991   -3.3117   24.4346 H   0  0  0  0  0  0
  1  2  2  0  0  0
  2  3  1  0  0  0
  2 14  1  0  0  0
  3  4  1  0  0  0
  3 30  1  0  0  0
  4 13  2  0  0  0
  4  5  1  0  0  0
  5  6  2  0  0  0
  5 31  1  0  0  0
  6  7  1  0  0  0
  7  8  2  0  0  0
  7 32  1  0  0  0
  8 13  1  0  0  0
  8  9  1  0  0  0
  9 10  2  0  0  0
  9 33  1  0  0  0
 10 11  1  0  0  0
 10 34  1  0  0  0
 11 12  2  0  0  0
 11 35  1  0  0  0
 12 13  1  0  0  0
 12 36  1  0  0  0
 14 15  1  0  0  0
 14 23  1  0  0  0
 15 16  1  0  0  0
 15 37  1  0  0  0
 15 38  1  0  0  0
 16 17  1  0  0  0
 16 39  1  0  0  0
 16 40  1  0  0  0
 17 22  1  0  0  0
 17 18  1  0  0  0
 17 41  1  0  0  0
 18 19  1  0  0  0
 18 42  1  0  0  0
 18 43  1  0  0  0
 19 20  1  0  0  0
 19 44  1  0  0  0
 19 45  1  0  0  0
 20 21  1  0  0  0
 20 46  1  0  0  0
 20 47  1  0  0  0
 21 22  1  0  0  0
 21 48  1  0  0  0
 21 49  1  0  0  0
 22 50  1  0  0  0
 22 51  1  0  0  0
 23 29  2  0  0  0
 23 24  1  0  0  0
 24 25  2  0  0  0
 24 52  1  0  0  0
 25 26  1  0  0  0
 25 53  1  0  0  0
 26 27  2  0  0  0
 26 54  1  0  0  0
 27 28  1  0  0  0
 27 29  1  0  0  0
 29 55  1  0  0  0
M  END
> <r_i_docking_score>
-4.8247906142637

$$$$
ligprep_5.maegz:374
                    3D
 Schrodinger Suite 2020-4.
 36 38  0  0  1  0            999 V2000
    9.0217   -1.2381   21.5179 O   0  0  0  0  0  0
    8.8313   -0.2108   22.1684 C   0  0  0  0  0  0
    9.6478    0.0313   23.4443 C   0  0  0  0  0  0
   11.0474    0.5208   23.1009 C   0  0  0  0  0  0
   12.0301   -0.3931   22.7061 C   0  0  0  0  0  0
   13.2869    0.0570   22.3079 C   0  0  0  0  0  0
   13.5701    1.4233   22.3082 C   0  0  0  0  0  0
   12.5993    2.3418   22.7078 C   0  0  0  0  0  0
   12.9507    4.0312   22.6879 Cl  0  0  0  0  0  0
   11.3380    1.8915   23.1005 C   0  0  0  0  0  0
    7.9427    0.7512   21.8524 N   0  0  0  0  0  0
    7.0374    0.8033   20.7777 C   0  0  0  0  0  0
    7.1579    0.0489   19.5993 C   0  0  0  0  0  0
    6.2572    0.1099   18.5889 N   0  0  0  0  0  0
    5.2020    0.9460   18.7309 C   0  0  0  0  0  0
    4.9856    1.7455   19.8532 C   0  0  0  0  0  0
    5.9411    1.6730   20.8877 C   0  0  0  0  0  0
    5.8059    2.3652   22.0856 O   0  0  0  0  0  0
    4.9446    3.5058   22.0558 C   0  0  0  0  0  0
    3.5913    3.1452   21.4139 C   0  0  0  0  0  0
    3.7922    2.6833   19.9620 C   0  0  0  0  0  0
    9.1447    0.7542   24.0891 H   0  0  0  0  0  0
    9.7019   -0.9019   24.0066 H   0  0  0  0  0  0
   11.8103   -1.4517   22.6804 H   0  0  0  0  0  0
   14.0288   -0.6530   21.9791 H   0  0  0  0  0  0
   14.5394    1.7728   21.9861 H   0  0  0  0  0  0
   10.5820    2.6103   23.3846 H   0  0  0  0  0  0
    7.8254    1.5036   22.5147 H   0  0  0  0  0  0
    7.9783   -0.6307   19.4271 H   0  0  0  0  0  0
    4.5042    0.9676   17.9071 H   0  0  0  0  0  0
    5.4246    4.3164   21.5053 H   0  0  0  0  0  0
    4.7981    3.8603   23.0749 H   0  0  0  0  0  0
    2.9119    3.9984   21.4467 H   0  0  0  0  0  0
    3.1233    2.3471   21.9929 H   0  0  0  0  0  0
    2.8874    2.2046   19.5862 H   0  0  0  0  0  0
    3.9693    3.5469   19.3195 H   0  0  0  0  0  0
  1  2  2  0  0  0
  2  3  1  0  0  0
  2 11  1  0  0  0
  3  4  1  0  0  0
  3 22  1  0  0  0
  3 23  1  0  0  0
  4 10  2  0  0  0
  4  5  1  0  0  0
  5  6  2  0  0  0
  5 24  1  0  0  0
  6  7  1  0  0  0
  6 25  1  0  0  0
  7  8  2  0  0  0
  7 26  1  0  0  0
  8  9  1  0  0  0
  8 10  1  0  0  0
 10 27  1  0  0  0
 11 12  1  0  0  0
 11 28  1  0  0  0
 12 17  2  0  0  0
 12 13  1  0  0  0
 13 14  2  0  0  0
 13 29  1  0  0  0
 14 15  1  0  0  0
 15 16  2  0  0  0
 15 30  1  0  0  0
 16 21  1  0  0  0
 16 17  1  0  0  0
 17 18  1  0  0  0
 18 19  1  0  0  0
 19 20  1  0  0  0
 19 31  1  0  0  0
 19 32  1  0  0  0
 20 21  1  0  0  0
 20 33  1  0  0  0
 20 34  1  0  0  0
 21 35  1  0  0  0
 21 36  1  0  0  0
M  END
> <r_i_docking_score>
-5.83047932594843

$$$$
ligprep_5.maegz:375
                    3D
 Schrodinger Suite 2020-4.
 36 38  0  0  1  0            999 V2000
   13.5694    2.6791   22.3081 C   0  0  0  0  0  0
   12.9824    1.6385   22.5664 C   0  0  0  0  0  0
   12.2514    0.4094   22.8233 C   0  0  0  0  0  0
   12.7157   -0.8031   22.3077 C   0  0  0  0  0  0
   11.9712   -1.9675   22.4841 C   0  0  0  0  0  0
   10.7741   -1.9325   23.1992 C   0  0  0  0  0  0
   10.3185   -0.7283   23.7497 C   0  0  0  0  0  0
    8.9899   -0.6772   24.4941 C   0  0  0  0  0  0
    7.8304   -0.3784   23.5316 C   0  0  0  0  0  0
    7.1814   -1.3083   23.0539 O   0  0  0  0  0  0
    7.5986    0.9260   23.2805 N   0  0  0  0  0  0
    6.6011    1.4585   22.4500 C   0  0  0  0  0  0
    5.7690    2.4296   23.0148 C   0  0  0  0  0  0
    4.7808    3.0680   22.3461 N   0  0  0  0  0  0
    4.6048    2.7471   21.0463 C   0  0  0  0  0  0
    5.3832    1.8066   20.3388 C   0  0  0  0  0  0
    5.1700    1.5409   18.9643 C   0  0  0  0  0  0
    5.9713    0.6104   18.3087 C   0  0  0  0  0  0
    6.9924   -0.0491   18.9878 C   0  0  0  0  0  0
    7.2347    0.2091   20.3338 C   0  0  0  0  0  0
    6.4230    1.1327   21.0562 C   0  0  0  0  0  0
   11.0588    0.4430   23.5513 C   0  0  0  0  0  0
   14.0976    3.5846   22.1020 H   0  0  0  0  0  0
   13.6323   -0.8443   21.7360 H   0  0  0  0  0  0
   12.3145   -2.8947   22.0513 H   0  0  0  0  0  0
   10.1980   -2.8403   23.3141 H   0  0  0  0  0  0
    8.8014   -1.6310   24.9935 H   0  0  0  0  0  0
    9.0315    0.0797   25.2791 H   0  0  0  0  0  0
    8.0676    1.5887   23.8746 H   0  0  0  0  0  0
    5.8821    2.7160   24.0510 H   0  0  0  0  0  0
    3.8298    3.2912   20.5257 H   0  0  0  0  0  0
    4.3871    2.0617   18.4270 H   0  0  0  0  0  0
    5.8039    0.3993   17.2604 H   0  0  0  0  0  0
    7.6051   -0.7629   18.4566 H   0  0  0  0  0  0
    8.0494   -0.3029   20.8264 H   0  0  0  0  0  0
   10.6931    1.3826   23.9467 H   0  0  0  0  0  0
  1  2  3  0  0  0
  1 23  1  0  0  0
  2  3  1  0  0  0
  3 22  2  0  0  0
  3  4  1  0  0  0
  4  5  2  0  0  0
  4 24  1  0  0  0
  5  6  1  0  0  0
  5 25  1  0  0  0
  6  7  2  0  0  0
  6 26  1  0  0  0
  7  8  1  0  0  0
  7 22  1  0  0  0
  8  9  1  0  0  0
  8 27  1  0  0  0
  8 28  1  0  0  0
  9 10  2  0  0  0
  9 11  1  0  0  0
 11 12  1  0  0  0
 11 29  1  0  0  0
 12 21  2  0  0  0
 12 13  1  0  0  0
 13 14  2  0  0  0
 13 30  1  0  0  0
 14 15  1  0  0  0
 15 16  2  0  0  0
 15 31  1  0  0  0
 16 21  1  0  0  0
 16 17  1  0  0  0
 17 18  2  0  0  0
 17 32  1  0  0  0
 18 19  1  0  0  0
 18 33  1  0  0  0
 19 20  2  0  0  0
 19 34  1  0  0  0
 20 21  1  0  0  0
 20 35  1  0  0  0
 22 36  1  0  0  0
M  END
> <r_i_docking_score>
-5.97703734118765

$$$$
ligprep_5.maegz:376
                    3D
 Schrodinger Suite 2020-4.
 41 44  0  0  1  0            999 V2000
    9.2129    1.9471   21.1691 O   0  0  0  0  0  0
    8.8496    1.3538   22.1907 C   0  0  0  0  0  0
    7.3401    1.0808   22.4546 C   0  0  1  0  0  0
    6.5711    0.9940   21.1251 C   0  0  0  0  0  0
    6.9669    0.1135   20.1044 C   0  0  0  0  0  0
    6.2797    0.0829   18.8932 C   0  0  0  0  0  0
    5.1724    0.9091   18.7038 C   0  0  0  0  0  0
    4.7481    1.7605   19.7223 C   0  0  0  0  0  0
    3.3476    2.7446   19.5091 Cl  0  0  0  0  0  0
    5.4510    1.8073   20.9240 C   0  0  0  0  0  0
    7.0826   -0.1274   23.3700 C   0  0  0  0  0  0
    7.9023    0.0231   24.6462 C   0  0  0  0  0  0
    9.4015    0.0887   24.3229 C   0  0  0  0  0  0
    9.7212    1.0092   23.1999 N   0  0  0  0  0  0
   11.0971    1.2585   23.0088 C   0  0  0  0  0  0
   11.9544    0.1920   22.7067 C   0  0  0  0  0  0
   13.2541    0.3431   22.3638 N   0  0  0  0  0  0
   13.7335    1.6033   22.3079 C   0  0  0  0  0  0
   13.0013    2.7656   22.6377 C   0  0  0  0  0  0
   13.5667    4.0636   22.6010 C   0  0  0  0  0  0
   12.7986    5.1667   22.9572 C   0  0  0  0  0  0
   11.4732    5.0115   23.3480 C   0  0  0  0  0  0
   10.8887    3.7473   23.3805 C   0  0  0  0  0  0
   11.6367    2.5913   23.0208 C   0  0  0  0  0  0
    6.9895    1.9824   22.9628 H   0  0  0  0  0  0
    7.8251   -0.5288   20.2399 H   0  0  0  0  0  0
    6.6010   -0.5799   18.1030 H   0  0  0  0  0  0
    4.6385    0.8744   17.7671 H   0  0  0  0  0  0
    5.1173    2.4826   21.6976 H   0  0  0  0  0  0
    7.3379   -1.0616   22.8634 H   0  0  0  0  0  0
    6.0205   -0.1906   23.6153 H   0  0  0  0  0  0
    7.7099   -0.8040   25.3307 H   0  0  0  0  0  0
    7.6055    0.9264   25.1834 H   0  0  0  0  0  0
    9.7526   -0.9061   24.0401 H   0  0  0  0  0  0
    9.9679    0.3886   25.2074 H   0  0  0  0  0  0
   11.5842   -0.8210   22.6656 H   0  0  0  0  0  0
   14.7648    1.7010   22.0046 H   0  0  0  0  0  0
   14.5984    4.1847   22.3079 H   0  0  0  0  0  0
   13.2395    6.1539   22.9364 H   0  0  0  0  0  0
   10.8928    5.8811   23.6204 H   0  0  0  0  0  0
    9.8552    3.6438   23.6758 H   0  0  0  0  0  0
  1  2  2  0  0  0
  2 14  1  0  0  0
  2  3  1  0  0  0
  3  4  1  0  0  0
  3 11  1  0  0  0
  3 25  1  0  0  0
  4 10  2  0  0  0
  4  5  1  0  0  0
  5  6  2  0  0  0
  5 26  1  0  0  0
  6  7  1  0  0  0
  6 27  1  0  0  0
  7  8  2  0  0  0
  7 28  1  0  0  0
  8  9  1  0  0  0
  8 10  1  0  0  0
 10 29  1  0  0  0
 11 12  1  0  0  0
 11 30  1  0  0  0
 11 31  1  0  0  0
 12 13  1  0  0  0
 12 32  1  0  0  0
 12 33  1  0  0  0
 13 14  1  0  0  0
 13 34  1  0  0  0
 13 35  1  0  0  0
 14 15  1  0  0  0
 15 24  2  0  0  0
 15 16  1  0  0  0
 16 17  2  0  0  0
 16 36  1  0  0  0
 17 18  1  0  0  0
 18 19  2  0  0  0
 18 37  1  0  0  0
 19 24  1  0  0  0
 19 20  1  0  0  0
 20 21  2  0  0  0
 20 38  1  0  0  0
 21 22  1  0  0  0
 21 39  1  0  0  0
 22 23  2  0  0  0
 22 40  1  0  0  0
 23 24  1  0  0  0
 23 41  1  0  0  0
M  END
> <r_i_docking_score>
-7.19843251076102

$$$$
ligprep_5.maegz:377
                    3D
 Schrodinger Suite 2020-4.
 38 41  0  0  1  0            999 V2000
    5.9666   -2.7428   21.0790 O   0  0  0  0  0  0
    6.7167   -1.9181   21.6098 C   0  0  0  0  0  0
    7.4582   -0.7905   20.8688 C   0  0  1  0  0  0
    6.4992    0.1789   20.1679 C   0  0  0  0  0  0
    6.4235    0.1864   18.7717 C   0  0  0  0  0  0
    5.5697    1.0719   18.1181 C   0  0  0  0  0  0
    4.7698    1.9482   18.8510 C   0  0  0  0  0  0
    4.8232    1.9380   20.2431 C   0  0  0  0  0  0
    3.8169    3.0041   21.1549 Cl  0  0  0  0  0  0
    5.6894    1.0608   20.8974 C   0  0  0  0  0  0
    8.4039   -0.1802   21.8890 C   0  0  0  0  0  0
    7.9008   -0.6728   23.2308 C   0  0  0  0  0  0
    7.0473   -1.8226   22.9270 N   0  0  0  0  0  0
    6.5154   -2.6565   23.9293 C   0  0  0  0  0  0
    5.1323   -2.6607   24.1524 C   0  0  0  0  0  0
    4.5201   -3.3742   25.1247 N   0  0  0  0  0  0
    5.3046   -4.1181   25.9352 C   0  0  0  0  0  0
    6.7118   -4.2130   25.8243 C   0  0  0  0  0  0
    7.4939   -4.9986   26.7062 C   0  0  0  0  0  0
    8.8753   -5.0635   26.5414 C   0  0  0  0  0  0
    9.4965   -4.3838   25.5022 C   0  0  0  0  0  0
    8.7552   -3.5963   24.6241 C   0  0  0  0  0  0
    7.3430   -3.4725   24.7741 C   0  0  0  0  0  0
    8.0671   -1.2569   20.0937 H   0  0  0  0  0  0
    7.0298   -0.4892   18.1839 H   0  0  0  0  0  0
    5.5276    1.0881   17.0411 H   0  0  0  0  0  0
    4.1199    2.6385   18.3307 H   0  0  0  0  0  0
    5.7124    1.0574   21.9760 H   0  0  0  0  0  0
    9.4141   -0.5592   21.7152 H   0  0  0  0  0  0
    8.4589    0.9095   21.8457 H   0  0  0  0  0  0
    7.3079    0.0953   23.7297 H   0  0  0  0  0  0
    8.7221   -0.9317   23.8987 H   0  0  0  0  0  0
    4.4804   -2.0544   23.5391 H   0  0  0  0  0  0
    4.7918   -4.6702   26.7104 H   0  0  0  0  0  0
    7.0124   -5.5442   27.5055 H   0  0  0  0  0  0
    9.4739   -5.6527   27.2185 H   0  0  0  0  0  0
   10.5672   -4.4650   25.3757 H   0  0  0  0  0  0
    9.2594   -3.0819   23.8200 H   0  0  0  0  0  0
  1  2  2  0  0  0
  2 13  1  0  0  0
  2  3  1  0  0  0
  3  4  1  0  0  0
  3 11  1  0  0  0
  3 24  1  0  0  0
  4 10  2  0  0  0
  4  5  1  0  0  0
  5  6  2  0  0  0
  5 25  1  0  0  0
  6  7  1  0  0  0
  6 26  1  0  0  0
  7  8  2  0  0  0
  7 27  1  0  0  0
  8  9  1  0  0  0
  8 10  1  0  0  0
 10 28  1  0  0  0
 11 12  1  0  0  0
 11 29  1  0  0  0
 11 30  1  0  0  0
 12 13  1  0  0  0
 12 31  1  0  0  0
 12 32  1  0  0  0
 13 14  1  0  0  0
 14 23  2  0  0  0
 14 15  1  0  0  0
 15 16  2  0  0  0
 15 33  1  0  0  0
 16 17  1  0  0  0
 17 18  2  0  0  0
 17 34  1  0  0  0
 18 23  1  0  0  0
 18 19  1  0  0  0
 19 20  2  0  0  0
 19 35  1  0  0  0
 20 21  1  0  0  0
 20 36  1  0  0  0
 21 22  2  0  0  0
 21 37  1  0  0  0
 22 23  1  0  0  0
 22 38  1  0  0  0
M  END
> <r_i_docking_score>
-5.93012877533777

$$$$
ligprep_5.maegz:378
                    3D
 Schrodinger Suite 2020-4.
 38 40  0  0  1  0            999 V2000
    6.6120    1.8266   24.5072 C   0  0  0  0  0  0
    6.9080    0.7183   23.6643 O   0  0  0  0  0  0
    6.5669    0.7689   22.3246 C   0  0  0  0  0  0
    5.9804    1.8920   21.7141 C   0  0  0  0  0  0
    5.6664    1.8826   20.3565 C   0  0  0  0  0  0
    5.9376    0.7526   19.5902 C   0  0  0  0  0  0
    5.5698    0.7473   17.9080 Cl  0  0  0  0  0  0
    6.5160   -0.3696   20.1794 C   0  0  0  0  0  0
    6.8396   -0.3693   21.5412 C   0  0  0  0  0  0
    7.5001   -1.6187   22.1491 C   0  0  0  0  0  0
    8.9868   -1.4760   22.5371 C   0  0  0  0  0  0
    9.5680   -2.4528   23.0069 O   0  0  0  0  0  0
    9.5682   -0.2746   22.3485 N   0  0  0  0  0  0
   10.9176    0.0973   22.4902 C   0  0  0  0  0  0
   11.9758   -0.8086   22.3089 C   0  0  0  0  0  0
   13.2818   -0.4531   22.3079 N   0  0  0  0  0  0
   13.5690    0.8568   22.4699 C   0  0  0  0  0  0
   12.6099    1.8719   22.6757 C   0  0  0  0  0  0
   12.9561    3.2398   22.7952 C   0  0  0  0  0  0
   11.9697    4.1935   23.0238 C   0  0  0  0  0  0
   10.6339    3.8182   23.1083 C   0  0  0  0  0  0
   10.2582    2.4880   22.9393 C   0  0  0  0  0  0
   11.2367    1.4780   22.7104 C   0  0  0  0  0  0
    6.9420    1.6030   25.5216 H   0  0  0  0  0  0
    7.1315    2.7297   24.1840 H   0  0  0  0  0  0
    5.5394    2.0239   24.5443 H   0  0  0  0  0  0
    5.7580    2.7865   22.2748 H   0  0  0  0  0  0
    5.2215    2.7574   19.8997 H   0  0  0  0  0  0
    6.7266   -1.2352   19.5673 H   0  0  0  0  0  0
    6.9479   -1.8916   23.0490 H   0  0  0  0  0  0
    7.4047   -2.4669   21.4699 H   0  0  0  0  0  0
    8.9406    0.4715   22.0894 H   0  0  0  0  0  0
   11.7917   -1.8535   22.1033 H   0  0  0  0  0  0
   14.6124    1.1252   22.4085 H   0  0  0  0  0  0
   13.9918    3.5367   22.7221 H   0  0  0  0  0  0
   12.2405    5.2339   23.1285 H   0  0  0  0  0  0
    9.8773    4.5715   23.2744 H   0  0  0  0  0  0
    9.2119    2.2274   22.9823 H   0  0  0  0  0  0
  1  2  1  0  0  0
  1 24  1  0  0  0
  1 25  1  0  0  0
  1 26  1  0  0  0
  2  3  1  0  0  0
  3  9  2  0  0  0
  3  4  1  0  0  0
  4  5  2  0  0  0
  4 27  1  0  0  0
  5  6  1  0  0  0
  5 28  1  0  0  0
  6  7  1  0  0  0
  6  8  2  0  0  0
  8  9  1  0  0  0
  8 29  1  0  0  0
  9 10  1  0  0  0
 10 11  1  0  0  0
 10 30  1  0  0  0
 10 31  1  0  0  0
 11 12  2  0  0  0
 11 13  1  0  0  0
 13 14  1  0  0  0
 13 32  1  0  0  0
 14 23  2  0  0  0
 14 15  1  0  0  0
 15 16  2  0  0  0
 15 33  1  0  0  0
 16 17  1  0  0  0
 17 18  2  0  0  0
 17 34  1  0  0  0
 18 23  1  0  0  0
 18 19  1  0  0  0
 19 20  2  0  0  0
 19 35  1  0  0  0
 20 21  1  0  0  0
 20 36  1  0  0  0
 21 22  2  0  0  0
 21 37  1  0  0  0
 22 23  1  0  0  0
 22 38  1  0  0  0
M  END
> <r_i_docking_score>
-5.60119711631266

$$$$
ligprep_5.maegz:379
                    3D
 Schrodinger Suite 2020-4.
 44 47  0  0  1  0            999 V2000
    5.6951   -4.1105   22.1986 O   0  0  0  0  0  0
    6.4114   -4.5668   23.0934 C   0  0  0  0  0  0
    7.9308   -4.2977   23.1060 C   0  0  0  0  0  0
    8.3802   -2.8453   22.9036 C   0  0  0  0  0  0
    9.3831   -2.3106   23.7205 C   0  0  0  0  0  0
    9.8841   -1.0300   23.4825 C   0  0  0  0  0  0
   11.1190   -0.3804   24.4998 Cl  0  0  0  0  0  0
    9.3942   -0.2772   22.4157 C   0  0  0  0  0  0
    8.3963   -0.7854   21.5835 C   0  0  0  0  0  0
    7.9773    0.0161   20.5366 O   0  0  0  0  0  0
    6.8128   -0.3060   19.8320 C   0  0  2  0  0  0
    6.4532    0.7340   18.7431 C   0  0  0  0  0  0
    5.1924    1.0193   19.5827 C   0  0  0  0  0  0
    4.2141    1.7518   19.4818 O   0  0  0  0  0  0
    5.5696    0.0784   20.5318 N   0  0  0  0  0  0
    7.8998   -2.0721   21.8414 C   0  0  0  0  0  0
    5.9687   -5.3551   24.0968 N   0  0  0  0  0  0
    4.7139   -5.8639   24.3249 C   0  0  0  0  0  0
    3.8009   -6.0824   23.3385 C   0  0  0  0  0  0
    2.4998   -6.6907   23.5528 C   0  0  0  0  0  0
    1.6363   -6.8145   22.6925 O   0  0  0  0  0  0
    2.2953   -7.1089   24.8193 N   0  0  0  0  0  0
    3.1677   -6.9512   25.9065 C   0  0  0  0  0  0
    2.7958   -7.4150   27.1673 C   0  0  0  0  0  0
    3.6644   -7.2567   28.2470 C   0  0  0  0  0  0
    4.8956   -6.6262   28.0687 C   0  0  0  0  0  0
    5.2686   -6.1511   26.8106 C   0  0  0  0  0  0
    4.4089   -6.3147   25.7130 C   0  0  0  0  0  0
    8.3674   -4.8919   22.3049 H   0  0  0  0  0  0
    8.3736   -4.6892   24.0233 H   0  0  0  0  0  0
    9.7925   -2.8936   24.5325 H   0  0  0  0  0  0
    9.7889    0.7106   22.2299 H   0  0  0  0  0  0
    6.8695   -1.3334   19.4699 H   0  0  0  0  0  0
    6.2565    0.3138   17.7570 H   0  0  0  0  0  0
    7.1683    1.5471   18.6914 H   0  0  0  0  0  0
    4.9656   -0.4532   21.1451 H   0  0  0  0  0  0
    7.1628   -2.5009   21.1855 H   0  0  0  0  0  0
    6.6601   -5.6358   24.7742 H   0  0  0  0  0  0
    4.0176   -5.8367   22.3111 H   0  0  0  0  0  0
    1.3953   -7.5365   24.9583 H   0  0  0  0  0  0
    1.8483   -7.9120   27.3142 H   0  0  0  0  0  0
    3.3876   -7.6308   29.2221 H   0  0  0  0  0  0
    5.5678   -6.5157   28.9076 H   0  0  0  0  0  0
    6.2289   -5.6693   26.7057 H   0  0  0  0  0  0
  1  2  2  0  0  0
  2  3  1  0  0  0
  2 17  1  0  0  0
  3  4  1  0  0  0
  3 29  1  0  0  0
  3 30  1  0  0  0
  4 16  2  0  0  0
  4  5  1  0  0  0
  5  6  2  0  0  0
  5 31  1  0  0  0
  6  7  1  0  0  0
  6  8  1  0  0  0
  8  9  2  0  0  0
  8 32  1  0  0  0
  9 10  1  0  0  0
  9 16  1  0  0  0
 10 11  1  0  0  0
 11 15  1  0  0  0
 11 12  1  0  0  0
 11 33  1  0  0  0
 12 13  1  0  0  0
 12 34  1  0  0  0
 12 35  1  0  0  0
 13 14  2  0  0  0
 13 15  1  0  0  0
 15 36  1  0  0  0
 16 37  1  0  0  0
 17 18  1  0  0  0
 17 38  1  0  0  0
 18 28  1  0  0  0
 18 19  2  0  0  0
 19 20  1  0  0  0
 19 39  1  0  0  0
 20 21  2  0  0  0
 20 22  1  0  0  0
 22 23  1  0  0  0
 22 40  1  0  0  0
 23 28  2  0  0  0
 23 24  1  0  0  0
 24 25  2  0  0  0
 24 41  1  0  0  0
 25 26  1  0  0  0
 25 42  1  0  0  0
 26 27  2  0  0  0
 26 43  1  0  0  0
 27 28  1  0  0  0
 27 44  1  0  0  0
M  END
> <r_i_docking_score>
-5.95831063630771

$$$$
ligprep_5.maegz:380
                    3D
 Schrodinger Suite 2020-4.
 41 43  0  0  1  0            999 V2000
    8.3703   -5.0480   24.7070 C   0  0  0  0  0  0
    7.5001   -4.6626   23.5176 C   0  0  0  0  0  0
    6.8613   -5.6806   22.8011 C   0  0  0  0  0  0
    6.1095   -5.3533   21.6742 C   0  0  0  0  0  0
    5.9696   -4.0810   21.2269 N   0  0  0  0  0  0
    6.5942   -3.0955   21.9207 C   0  0  0  0  0  0
    7.3541   -3.3304   23.0729 C   0  0  0  0  0  0
    7.9613   -2.2232   23.6857 N   0  0  0  0  0  0
    7.8081   -1.8428   24.9732 C   0  0  0  0  0  0
    7.0991   -2.4419   25.7821 O   0  0  0  0  0  0
    8.5492   -0.5823   25.4583 C   0  0  0  0  0  0
    9.1445    0.3065   24.3644 C   0  0  0  0  0  0
   10.5273    0.4899   24.2868 C   0  0  0  0  0  0
   11.0694    1.3166   23.3053 C   0  0  0  0  0  0
   12.7770    1.5377   23.2119 Cl  0  0  0  0  0  0
   10.2305    1.9666   22.4015 C   0  0  0  0  0  0
    8.8464    1.7981   22.4568 C   0  0  0  0  0  0
    8.1164    2.4914   21.5109 O   0  0  0  0  0  0
    6.6865    2.4597   21.4859 C   0  0  0  0  0  0
    6.2190    1.5611   20.3593 C   0  0  0  0  0  0
    6.6305    0.3425   20.1089 N   0  0  0  0  0  0
    5.9761    0.0540   18.9937 C   0  0  0  0  0  0
    5.1732    0.9745   18.5050 N   0  0  0  0  0  0
    5.3224    1.9469   19.4010 N   0  0  0  0  0  0
    8.3105    0.9559   23.4452 C   0  0  0  0  0  0
    9.2347   -4.3899   24.7961 H   0  0  0  0  0  0
    7.7991   -5.0103   25.6349 H   0  0  0  0  0  0
    8.7701   -6.0530   24.5885 H   0  0  0  0  0  0
    6.9497   -6.7119   23.1076 H   0  0  0  0  0  0
    5.6090   -6.1265   21.1090 H   0  0  0  0  0  0
    6.4641   -2.0943   21.5353 H   0  0  0  0  0  0
    8.4527   -1.5888   23.0734 H   0  0  0  0  0  0
    7.8551    0.0221   26.0437 H   0  0  0  0  0  0
    9.3280   -0.9020   26.1515 H   0  0  0  0  0  0
   11.1831   -0.0038   24.9893 H   0  0  0  0  0  0
   10.6523    2.6190   21.6502 H   0  0  0  0  0  0
    6.2190    2.1795   22.4268 H   0  0  0  0  0  0
    6.3546    3.4860   21.3222 H   0  0  0  0  0  0
    6.1071   -0.8945   18.4935 H   0  0  0  0  0  0
    4.8706    2.8513   19.3245 H   0  0  0  0  0  0
    7.2495    0.7822   23.5211 H   0  0  0  0  0  0
  1  2  1  0  0  0
  1 26  1  0  0  0
  1 27  1  0  0  0
  1 28  1  0  0  0
  2  7  2  0  0  0
  2  3  1  0  0  0
  3  4  2  0  0  0
  3 29  1  0  0  0
  4  5  1  0  0  0
  4 30  1  0  0  0
  5  6  2  0  0  0
  6  7  1  0  0  0
  6 31  1  0  0  0
  7  8  1  0  0  0
  8  9  1  0  0  0
  8 32  1  0  0  0
  9 10  2  0  0  0
  9 11  1  0  0  0
 11 12  1  0  0  0
 11 33  1  0  0  0
 11 34  1  0  0  0
 12 25  2  0  0  0
 12 13  1  0  0  0
 13 14  2  0  0  0
 13 35  1  0  0  0
 14 15  1  0  0  0
 14 16  1  0  0  0
 16 17  2  0  0  0
 16 36  1  0  0  0
 17 18  1  0  0  0
 17 25  1  0  0  0
 18 19  1  0  0  0
 19 20  1  0  0  0
 19 37  1  0  0  0
 19 38  1  0  0  0
 20 24  1  0  0  0
 20 21  2  0  0  0
 21 22  1  0  0  0
 22 23  2  0  0  0
 22 39  1  0  0  0
 23 24  1  0  0  0
 24 40  1  0  0  0
 25 41  1  0  0  0
M  END
> <r_i_docking_score>
-5.48766849572675

$$$$
ligprep_5.maegz:381
                    3D
 Schrodinger Suite 2020-4.
 41 42  0  0  1  0            999 V2000
    6.1644   -0.7087   20.4252 C   0  0  0  0  0  0
    6.4624    0.7743   20.6026 C   0  0  0  0  0  0
    7.5709    1.2166   20.3060 O   0  0  0  0  0  0
    5.4625    1.5209   21.0986 N   0  0  0  0  0  0
    5.4731    2.9772   21.2881 C   0  0  0  0  0  0
    6.5191    3.5725   22.2349 C   0  0  0  0  0  0
    6.8591    4.9221   22.0960 C   0  0  0  0  0  0
    7.8409    5.4895   22.9044 C   0  0  0  0  0  0
    8.2692    7.1468   22.7084 Cl  0  0  0  0  0  0
    8.4903    4.7185   23.8653 C   0  0  0  0  0  0
    8.1653    3.3673   24.0142 C   0  0  0  0  0  0
    8.9456    2.4955   24.9900 C   0  0  0  0  0  0
   10.2639    2.0502   24.3520 C   0  0  0  0  0  0
   11.1693    2.8742   24.2325 O   0  0  0  0  0  0
   10.3201    0.7626   23.9532 N   0  0  0  0  0  0
   11.3466    0.0690   23.2813 C   0  0  0  0  0  0
   12.6052    0.6202   22.9747 C   0  0  0  0  0  0
   13.5701   -0.0596   22.3085 N   0  0  0  0  0  0
   13.3032   -1.3298   21.9241 C   0  0  0  0  0  0
   12.0985   -1.9663   22.2109 C   0  0  0  0  0  0
   11.0987   -1.2594   22.8823 C   0  0  0  0  0  0
    9.7620   -1.9495   23.1366 C   0  0  0  0  0  0
    7.1816    2.8005   23.1965 C   0  0  0  0  0  0
    5.8579   -1.1498   21.3753 H   0  0  0  0  0  0
    5.3617   -0.8473   19.6988 H   0  0  0  0  0  0
    7.0478   -1.2379   20.0654 H   0  0  0  0  0  0
    4.6104    1.0417   21.3695 H   0  0  0  0  0  0
    4.4905    3.2826   21.6525 H   0  0  0  0  0  0
    5.5692    3.4466   20.3075 H   0  0  0  0  0  0
    6.3707    5.5338   21.3477 H   0  0  0  0  0  0
    9.2690    5.1614   24.4720 H   0  0  0  0  0  0
    8.3464    1.6314   25.2842 H   0  0  0  0  0  0
    9.1596    3.0486   25.9058 H   0  0  0  0  0  0
    9.4900    0.2163   24.1177 H   0  0  0  0  0  0
   12.8859    1.6254   23.2436 H   0  0  0  0  0  0
   14.0818   -1.8483   21.3860 H   0  0  0  0  0  0
   11.9373   -2.9852   21.8991 H   0  0  0  0  0  0
    8.9524   -1.3756   22.6839 H   0  0  0  0  0  0
    9.7308   -2.9554   22.7159 H   0  0  0  0  0  0
    9.5648   -2.0170   24.2082 H   0  0  0  0  0  0
    6.9468    1.7488   23.2980 H   0  0  0  0  0  0
  1  2  1  0  0  0
  1 24  1  0  0  0
  1 25  1  0  0  0
  1 26  1  0  0  0
  2  3  2  0  0  0
  2  4  1  0  0  0
  4  5  1  0  0  0
  4 27  1  0  0  0
  5  6  1  0  0  0
  5 28  1  0  0  0
  5 29  1  0  0  0
  6 23  2  0  0  0
  6  7  1  0  0  0
  7  8  2  0  0  0
  7 30  1  0  0  0
  8  9  1  0  0  0
  8 10  1  0  0  0
 10 11  2  0  0  0
 10 31  1  0  0  0
 11 12  1  0  0  0
 11 23  1  0  0  0
 12 13  1  0  0  0
 12 32  1  0  0  0
 12 33  1  0  0  0
 13 14  2  0  0  0
 13 15  1  0  0  0
 15 16  1  0  0  0
 15 34  1  0  0  0
 16 21  2  0  0  0
 16 17  1  0  0  0
 17 18  2  0  0  0
 17 35  1  0  0  0
 18 19  1  0  0  0
 19 20  2  0  0  0
 19 36  1  0  0  0
 20 21  1  0  0  0
 20 37  1  0  0  0
 21 22  1  0  0  0
 22 38  1  0  0  0
 22 39  1  0  0  0
 22 40  1  0  0  0
 23 41  1  0  0  0
M  END
> <r_i_docking_score>
-5.65825585814816

$$$$
ligprep_5.maegz:382
                    3D
 Schrodinger Suite 2020-4.
 38 39  0  0  1  0            999 V2000
   12.2848    6.3460   23.8793 C   0  0  0  0  0  0
   11.9699    4.9395   23.6691 N   0  0  0  0  0  0
   12.6958    4.1002   22.9125 C   0  0  0  0  0  0
   13.7107    4.4494   22.3084 O   0  0  0  0  0  0
   12.2451    2.6576   22.9051 C   0  0  0  0  0  0
   13.1788    1.6407   22.6749 C   0  0  0  0  0  0
   12.7938    0.3029   22.6381 C   0  0  0  0  0  0
   13.9685   -0.9169   22.3076 Cl  0  0  0  0  0  0
   11.4565   -0.0411   22.8205 C   0  0  0  0  0  0
   10.5014    0.9552   23.0433 C   0  0  0  0  0  0
    9.0176    0.5947   23.1342 C   0  0  0  0  0  0
    8.2193    1.0298   21.8919 C   0  0  0  0  0  0
    8.7897    1.5471   20.9307 O   0  0  0  0  0  0
    6.8870    0.8415   21.9362 N   0  0  0  0  0  0
    6.0092    1.2695   20.9294 C   0  0  0  0  0  0
    5.0396    2.2134   21.2827 C   0  0  0  0  0  0
    4.1610    2.7437   20.3983 N   0  0  0  0  0  0
    4.2499    2.3395   19.1087 C   0  0  0  0  0  0
    5.1669    1.3827   18.6702 C   0  0  0  0  0  0
    6.0587    0.8231   19.5897 C   0  0  0  0  0  0
    7.0138   -0.2623   19.1077 C   0  0  0  0  0  0
   10.9020    2.2973   23.0965 C   0  0  0  0  0  0
   11.3636    6.9253   23.8575 H   0  0  0  0  0  0
   12.7559    6.4854   24.8526 H   0  0  0  0  0  0
   12.9558    6.7449   23.1161 H   0  0  0  0  0  0
   11.1431    4.5835   24.1227 H   0  0  0  0  0  0
   14.2178    1.8873   22.5035 H   0  0  0  0  0  0
   11.1607   -1.0784   22.7550 H   0  0  0  0  0  0
    8.5918    1.0672   24.0201 H   0  0  0  0  0  0
    8.8999   -0.4828   23.2564 H   0  0  0  0  0  0
    6.4692    0.5389   22.8026 H   0  0  0  0  0  0
    4.9590    2.5793   22.2953 H   0  0  0  0  0  0
    3.5702    2.8102   18.4120 H   0  0  0  0  0  0
    5.1791    1.0879   17.6307 H   0  0  0  0  0  0
    7.9427    0.1739   18.7403 H   0  0  0  0  0  0
    7.2442   -0.9720   19.9017 H   0  0  0  0  0  0
    6.5676   -0.8431   18.2996 H   0  0  0  0  0  0
   10.1446    3.0567   23.2326 H   0  0  0  0  0  0
  1  2  1  0  0  0
  1 23  1  0  0  0
  1 24  1  0  0  0
  1 25  1  0  0  0
  2  3  1  0  0  0
  2 26  1  0  0  0
  3  4  2  0  0  0
  3  5  1  0  0  0
  5 22  2  0  0  0
  5  6  1  0  0  0
  6  7  2  0  0  0
  6 27  1  0  0  0
  7  8  1  0  0  0
  7  9  1  0  0  0
  9 10  2  0  0  0
  9 28  1  0  0  0
 10 11  1  0  0  0
 10 22  1  0  0  0
 11 12  1  0  0  0
 11 29  1  0  0  0
 11 30  1  0  0  0
 12 13  2  0  0  0
 12 14  1  0  0  0
 14 15  1  0  0  0
 14 31  1  0  0  0
 15 20  2  0  0  0
 15 16  1  0  0  0
 16 17  2  0  0  0
 16 32  1  0  0  0
 17 18  1  0  0  0
 18 19  2  0  0  0
 18 33  1  0  0  0
 19 20  1  0  0  0
 19 34  1  0  0  0
 20 21  1  0  0  0
 21 35  1  0  0  0
 21 36  1  0  0  0
 21 37  1  0  0  0
 22 38  1  0  0  0
M  END
> <r_i_docking_score>
-6.72759693714737

$$$$
ligprep_5.maegz:383
                    3D
 Schrodinger Suite 2020-4.
 42 43  0  0  1  0            999 V2000
    9.4598   -1.5087   22.5488 C   0  0  0  0  0  0
   10.9054   -1.0271   22.5434 C   0  0  0  0  0  0
   11.8868   -1.8649   22.0062 C   0  0  0  0  0  0
   13.1968   -1.4015   21.9081 C   0  0  0  0  0  0
   13.5697   -0.1607   22.3081 N   0  0  0  0  0  0
   12.6197    0.6471   22.8400 C   0  0  0  0  0  0
   11.2873    0.2540   22.9970 C   0  0  0  0  0  0
   10.3978    1.1692   23.5730 N   0  0  0  0  0  0
    9.6983    0.9553   24.7073 C   0  0  0  0  0  0
    9.8162   -0.0576   25.3977 O   0  0  0  0  0  0
    8.7334    2.0576   25.1766 C   0  0  0  0  0  0
    8.1657    2.9234   24.0532 C   0  0  0  0  0  0
    8.6161    4.2343   23.8747 C   0  0  0  0  0  0
    8.1086    5.0158   22.8375 C   0  0  0  0  0  0
    8.6624    6.6389   22.6423 Cl  0  0  0  0  0  0
    7.1573    4.4852   21.9648 C   0  0  0  0  0  0
    6.7078    3.1680   22.1189 C   0  0  0  0  0  0
    5.6470    2.6283   21.1598 C   0  0  0  0  0  0
    5.5697    1.1463   21.1155 N   0  0  2  0  0  0
    6.2003    0.2942   19.7168 S   0  0  0  0  0  0
    5.1658    0.9288   18.2872 C   0  0  0  0  0  0
    7.5752    0.7471   19.5119 O   0  0  0  0  0  0
    5.8999   -1.1276   19.9069 O   0  0  0  0  0  0
    7.2094    2.3990   23.1776 C   0  0  0  0  0  0
    9.1939   -1.9233   23.5213 H   0  0  0  0  0  0
    8.7763   -0.6900   22.3196 H   0  0  0  0  0  0
    9.2923   -2.2685   21.7834 H   0  0  0  0  0  0
   11.6318   -2.8490   21.6418 H   0  0  0  0  0  0
   13.9683   -2.0262   21.4830 H   0  0  0  0  0  0
   12.9560    1.6229   23.1593 H   0  0  0  0  0  0
   10.3414    2.0829   23.1483 H   0  0  0  0  0  0
    7.9038    1.5899   25.7091 H   0  0  0  0  0  0
    9.2559    2.6732   25.9074 H   0  0  0  0  0  0
    9.3573    4.6517   24.5406 H   0  0  0  0  0  0
    6.7692    5.1011   21.1632 H   0  0  0  0  0  0
    4.6547    3.0469   21.3328 H   0  0  0  0  0  0
    5.9591    2.9568   20.1703 H   0  0  0  0  0  0
    4.6437    0.7908   21.3852 H   0  0  0  0  0  0
    5.4454    0.3752   17.3932 H   0  0  0  0  0  0
    4.1155    0.7727   18.5151 H   0  0  0  0  0  0
    5.3586    1.9896   18.1394 H   0  0  0  0  0  0
    6.8658    1.3846   23.3209 H   0  0  0  0  0  0
  1  2  1  0  0  0
  1 25  1  0  0  0
  1 26  1  0  0  0
  1 27  1  0  0  0
  2  7  2  0  0  0
  2  3  1  0  0  0
  3  4  2  0  0  0
  3 28  1  0  0  0
  4  5  1  0  0  0
  4 29  1  0  0  0
  5  6  2  0  0  0
  6  7  1  0  0  0
  6 30  1  0  0  0
  7  8  1  0  0  0
  8  9  1  0  0  0
  8 31  1  0  0  0
  9 10  2  0  0  0
  9 11  1  0  0  0
 11 12  1  0  0  0
 11 32  1  0  0  0
 11 33  1  0  0  0
 12 24  2  0  0  0
 12 13  1  0  0  0
 13 14  2  0  0  0
 13 34  1  0  0  0
 14 15  1  0  0  0
 14 16  1  0  0  0
 16 17  2  0  0  0
 16 35  1  0  0  0
 17 18  1  0  0  0
 17 24  1  0  0  0
 18 19  1  0  0  0
 18 36  1  0  0  0
 18 37  1  0  0  0
 19 20  1  0  0  0
 19 38  1  0  0  0
 20 21  1  0  0  0
 20 22  2  0  0  0
 20 23  2  0  0  0
 21 39  1  0  0  0
 21 40  1  0  0  0
 21 41  1  0  0  0
 24 42  1  0  0  0
M  END
> <r_i_docking_score>
-5.77711550321372

$$$$
ligprep_5.maegz:384
                    3D
 Schrodinger Suite 2020-4.
 36 37  0  0  1  0            999 V2000
    7.0370   -0.2092   19.2227 C   0  0  0  0  0  0
    6.0540    0.8696   19.6617 C   0  0  0  0  0  0
    5.1668    1.3809   18.7093 C   0  0  0  0  0  0
    4.2117    2.3181   19.1078 C   0  0  0  0  0  0
    4.0798    2.7468   20.3844 N   0  0  0  0  0  0
    4.9609    2.2745   21.2965 C   0  0  0  0  0  0
    5.9693    1.3554   20.9876 C   0  0  0  0  0  0
    6.8355    0.9997   22.0321 N   0  0  0  0  0  0
    8.1688    1.1810   22.0019 C   0  0  0  0  0  0
    8.7749    1.5472   20.9940 O   0  0  0  0  0  0
    8.9269    0.9358   23.3199 C   0  0  0  0  0  0
   10.3533    1.4790   23.2579 C   0  0  0  0  0  0
   11.4133    0.6247   22.9454 C   0  0  0  0  0  0
   12.6841    1.1437   22.7084 C   0  0  0  0  0  0
   13.9695    0.0721   22.3077 Cl  0  0  0  0  0  0
   12.9025    2.5208   22.7645 C   0  0  0  0  0  0
   11.8553    3.3803   23.1081 C   0  0  0  0  0  0
   12.1247    5.1489   23.1571 S   0  0  0  0  0  0
   10.6015    5.8647   22.7080 N   0  0  0  0  0  0
   12.3696    5.5213   24.5533 O   0  0  0  0  0  0
   13.0938    5.4799   22.1073 O   0  0  0  0  0  0
   10.5852    2.8555   23.3645 C   0  0  0  0  0  0
    7.3127   -0.8641   20.0496 H   0  0  0  0  0  0
    6.5908   -0.8505   18.4606 H   0  0  0  0  0  0
    7.9378    0.2362   18.7999 H   0  0  0  0  0  0
    5.2078    1.0596   17.6785 H   0  0  0  0  0  0
    3.5332    2.7517   18.3867 H   0  0  0  0  0  0
    4.8481    2.6664   22.2961 H   0  0  0  0  0  0
    6.4032    0.7954   22.9199 H   0  0  0  0  0  0
    8.3924    1.4078   24.1455 H   0  0  0  0  0  0
    8.9414   -0.1379   23.5120 H   0  0  0  0  0  0
   11.2442   -0.4380   22.8431 H   0  0  0  0  0  0
   13.8870    2.9168   22.5560 H   0  0  0  0  0  0
   10.5813    6.8708   22.8815 H   0  0  0  0  0  0
   10.3696    5.6543   21.7267 H   0  0  0  0  0  0
    9.7612    3.5186   23.5863 H   0  0  0  0  0  0
  1  2  1  0  0  0
  1 23  1  0  0  0
  1 24  1  0  0  0
  1 25  1  0  0  0
  2  7  2  0  0  0
  2  3  1  0  0  0
  3  4  2  0  0  0
  3 26  1  0  0  0
  4  5  1  0  0  0
  4 27  1  0  0  0
  5  6  2  0  0  0
  6  7  1  0  0  0
  6 28  1  0  0  0
  7  8  1  0  0  0
  8  9  1  0  0  0
  8 29  1  0  0  0
  9 10  2  0  0  0
  9 11  1  0  0  0
 11 12  1  0  0  0
 11 30  1  0  0  0
 11 31  1  0  0  0
 12 22  2  0  0  0
 12 13  1  0  0  0
 13 14  2  0  0  0
 13 32  1  0  0  0
 14 15  1  0  0  0
 14 16  1  0  0  0
 16 17  2  0  0  0
 16 33  1  0  0  0
 17 18  1  0  0  0
 17 22  1  0  0  0
 18 19  1  0  0  0
 18 20  2  0  0  0
 18 21  2  0  0  0
 19 34  1  0  0  0
 19 35  1  0  0  0
 22 36  1  0  0  0
M  END
> <r_i_docking_score>
-6.87174697188628

$$$$
ligprep_5.maegz:385
                    3D
 Schrodinger Suite 2020-4.
 34 36  0  0  1  0            999 V2000
    4.4040   -6.7094   26.2081 C   0  0  0  0  0  0
    5.6107   -6.4526   26.9176 O   0  0  0  0  0  0
    6.5238   -5.5517   26.4048 C   0  0  0  0  0  0
    7.7020   -5.3655   27.1282 C   0  0  0  0  0  0
    8.6655   -4.4506   26.7080 C   0  0  0  0  0  0
    8.4518   -3.6931   25.5592 C   0  0  0  0  0  0
    7.2862   -3.8747   24.8035 C   0  0  0  0  0  0
    7.0290   -3.0541   23.6131 C   0  0  0  0  0  0
    7.3897   -1.8617   23.3984 N   0  0  0  0  0  0
    6.8317   -1.4950   22.2244 C   0  0  0  0  0  0
    6.8574   -0.2590   21.6761 C   0  0  0  0  0  0
    6.2572    0.3015   20.4706 C   0  0  0  0  0  0
    6.3992   -0.4531   18.9111 S   0  0  0  0  0  0
    5.5688    0.8614   18.1718 C   0  0  0  0  0  0
    5.1700    1.8119   19.0968 C   0  0  0  0  0  0
    5.5676    1.5225   20.4087 C   0  0  0  0  0  0
    5.3109    2.4422   21.5833 C   0  0  0  0  0  0
    6.1631   -2.6838   21.7015 C   0  0  0  0  0  0
    5.5697   -2.8544   20.6395 O   0  0  0  0  0  0
    6.2968   -3.6153   22.6190 O   0  0  0  0  0  0
    6.3356   -4.8153   25.2251 C   0  0  0  0  0  0
    3.8245   -7.4600   26.7465 H   0  0  0  0  0  0
    3.7870   -5.8126   26.1304 H   0  0  0  0  0  0
    4.6004   -7.1018   25.2085 H   0  0  0  0  0  0
    7.8681   -5.9407   28.0267 H   0  0  0  0  0  0
    9.5706   -4.3233   27.2829 H   0  0  0  0  0  0
    9.1980   -2.9715   25.2563 H   0  0  0  0  0  0
    7.3886    0.4928   22.2413 H   0  0  0  0  0  0
    5.3945    0.8688   17.1087 H   0  0  0  0  0  0
    4.6320    2.7104   18.8254 H   0  0  0  0  0  0
    4.6288    1.9865   22.3027 H   0  0  0  0  0  0
    6.2296    2.6425   22.1336 H   0  0  0  0  0  0
    4.9054    3.4095   21.2840 H   0  0  0  0  0  0
    5.4304   -4.9450   24.6521 H   0  0  0  0  0  0
  1  2  1  0  0  0
  1 22  1  0  0  0
  1 23  1  0  0  0
  1 24  1  0  0  0
  2  3  1  0  0  0
  3 21  2  0  0  0
  3  4  1  0  0  0
  4  5  2  0  0  0
  4 25  1  0  0  0
  5  6  1  0  0  0
  5 26  1  0  0  0
  6  7  2  0  0  0
  6 27  1  0  0  0
  7  8  1  0  0  0
  7 21  1  0  0  0
  8 20  1  0  0  0
  8  9  2  0  0  0
  9 10  1  0  0  0
 10 11  2  0  0  0
 10 18  1  0  0  0
 11 12  1  0  0  0
 11 28  1  0  0  0
 12 16  2  0  0  0
 12 13  1  0  0  0
 13 14  1  0  0  0
 14 15  2  0  0  0
 14 29  1  0  0  0
 15 16  1  0  0  0
 15 30  1  0  0  0
 16 17  1  0  0  0
 17 31  1  0  0  0
 17 32  1  0  0  0
 17 33  1  0  0  0
 18 19  2  0  0  0
 18 20  1  0  0  0
 21 34  1  0  0  0
M  END
> <r_i_docking_score>
-5.41268979650973

$$$$
ligprep_5.maegz:386
                    3D
 Schrodinger Suite 2020-4.
 28 30  0  0  1  0            999 V2000
    5.7930    3.5559   22.8568 O   0  0  0  0  0  0
    6.5086    2.7602   22.2507 C   0  0  0  0  0  0
    7.7558    2.5038   22.7563 O   0  0  0  0  0  0
    8.6540    1.6249   22.1825 C   0  0  0  0  0  0
    9.8567    1.5494   22.8586 N   0  0  0  0  0  0
   10.9387    0.6727   22.6763 C   0  0  0  0  0  0
   12.2262    1.1677   22.8996 C   0  0  0  0  0  0
   13.3337    0.3477   22.7036 C   0  0  0  0  0  0
   13.1520   -0.9764   22.3079 C   0  0  0  0  0  0
   11.8731   -1.4912   22.1222 C   0  0  0  0  0  0
   10.7663   -0.6672   22.3015 C   0  0  0  0  0  0
    8.3740    0.9718   21.1116 N   0  0  0  0  0  0
    7.1274    1.1602   20.4894 C   0  0  0  0  0  0
    6.8858    0.4640   19.3042 C   0  0  0  0  0  0
    5.6936    0.6717   18.6096 C   0  0  0  0  0  0
    4.7390    1.5587   19.1073 C   0  0  0  0  0  0
    4.9614    2.2436   20.2990 C   0  0  0  0  0  0
    6.1571    2.0435   20.9936 C   0  0  0  0  0  0
   10.0914    2.3817   23.3761 H   0  0  0  0  0  0
   12.3792    2.1940   23.1980 H   0  0  0  0  0  0
   14.3293    0.7390   22.8465 H   0  0  0  0  0  0
   14.0107   -1.6120   22.1519 H   0  0  0  0  0  0
   11.7363   -2.5200   21.8174 H   0  0  0  0  0  0
    9.7776   -1.0716   22.1388 H   0  0  0  0  0  0
    7.6280   -0.2135   18.9075 H   0  0  0  0  0  0
    5.5145    0.1516   17.6795 H   0  0  0  0  0  0
    3.8260    1.7297   18.5554 H   0  0  0  0  0  0
    4.2210    2.9463   20.6578 H   0  0  0  0  0  0
  1  2  2  0  0  0
  2 18  1  0  0  0
  2  3  1  0  0  0
  3  4  1  0  0  0
  4  5  1  0  0  0
  4 12  2  0  0  0
  5  6  1  0  0  0
  5 19  1  0  0  0
  6 11  2  0  0  0
  6  7  1  0  0  0
  7  8  2  0  0  0
  7 20  1  0  0  0
  8  9  1  0  0  0
  8 21  1  0  0  0
  9 10  2  0  0  0
  9 22  1  0  0  0
 10 11  1  0  0  0
 10 23  1  0  0  0
 11 24  1  0  0  0
 12 13  1  0  0  0
 13 18  2  0  0  0
 13 14  1  0  0  0
 14 15  2  0  0  0
 14 25  1  0  0  0
 15 16  1  0  0  0
 15 26  1  0  0  0
 16 17  2  0  0  0
 16 27  1  0  0  0
 17 18  1  0  0  0
 17 28  1  0  0  0
M  END
> <r_i_docking_score>
-5.9284435468639

$$$$
ligprep_5.maegz:387
                    3D
 Schrodinger Suite 2020-4.
 34 35  0  0  1  0            999 V2000
    7.5263    5.7678   21.7222 C   0  0  0  0  0  0
    8.5562    5.1913   22.7057 C   0  0  0  0  0  0
    9.7587    6.1313   22.9340 C   0  0  0  0  0  0
   10.8075    5.5936   23.9277 C   0  0  0  0  0  0
   11.5941    4.4135   23.3888 C   0  0  0  0  0  0
   11.2130    3.1551   23.4515 N   0  0  0  0  0  0
   12.1654    2.4402   22.8670 C   0  0  0  0  0  0
   12.1456    0.9699   22.7299 C   0  0  0  0  0  0
   13.2306    0.3054   22.3809 N   0  0  0  0  0  0
   12.8808   -0.9620   22.3067 C   0  0  0  0  0  0
   11.5523   -1.1370   22.6368 C   0  0  0  0  0  0
   11.0664    0.1157   22.9239 N   0  0  0  0  0  0
    9.6769    0.4034   23.2833 C   0  0  0  0  0  0
    8.7855    0.5592   22.0368 C   0  0  0  0  0  0
    7.5312    0.8272   22.3983 F   0  0  0  0  0  0
    9.1937    1.5531   21.2489 F   0  0  0  0  0  0
    8.7571   -0.5554   21.3045 F   0  0  0  0  0  0
   13.1762    3.2775   22.4097 C   0  0  0  0  0  0
   12.7947    4.5458   22.7495 N   0  0  0  0  0  0
    6.6927    5.0806   21.5768 H   0  0  0  0  0  0
    7.9680    5.9476   20.7415 H   0  0  0  0  0  0
    7.1139    6.7115   22.0786 H   0  0  0  0  0  0
    8.0667    4.9788   23.6563 H   0  0  0  0  0  0
    8.9003    4.2312   22.3197 H   0  0  0  0  0  0
   10.2432    6.3480   21.9803 H   0  0  0  0  0  0
    9.3868    7.0888   23.3005 H   0  0  0  0  0  0
   11.4870    6.4030   24.1974 H   0  0  0  0  0  0
   10.3116    5.3224   24.8588 H   0  0  0  0  0  0
   13.5763   -1.7323   22.0033 H   0  0  0  0  0  0
   10.9201   -2.0137   22.6694 H   0  0  0  0  0  0
    9.3117   -0.4173   23.9019 H   0  0  0  0  0  0
    9.6286    1.2881   23.9127 H   0  0  0  0  0  0
   14.1099    3.0767   21.9109 H   0  0  0  0  0  0
   13.3061    5.3995   22.5756 H   0  0  0  0  0  0
  1  2  1  0  0  0
  1 20  1  0  0  0
  1 21  1  0  0  0
  1 22  1  0  0  0
  2  3  1  0  0  0
  2 23  1  0  0  0
  2 24  1  0  0  0
  3  4  1  0  0  0
  3 25  1  0  0  0
  3 26  1  0  0  0
  4  5  1  0  0  0
  4 27  1  0  0  0
  4 28  1  0  0  0
  5 19  1  0  0  0
  5  6  2  0  0  0
  6  7  1  0  0  0
  7  8  1  0  0  0
  7 18  2  0  0  0
  8 12  1  0  0  0
  8  9  2  0  0  0
  9 10  1  0  0  0
 10 11  2  0  0  0
 10 29  1  0  0  0
 11 12  1  0  0  0
 11 30  1  0  0  0
 12 13  1  0  0  0
 13 14  1  0  0  0
 13 31  1  0  0  0
 13 32  1  0  0  0
 14 15  1  0  0  0
 14 16  1  0  0  0
 14 17  1  0  0  0
 18 19  1  0  0  0
 18 33  1  0  0  0
 19 34  1  0  0  0
M  END
> <r_i_docking_score>
-4.84921240607558

$$$$
ligprep_5.maegz:388
                    3D
 Schrodinger Suite 2020-4.
 38 40  0  0  1  0            999 V2000
    7.5683    5.8416   21.7384 C   0  0  0  0  0  0
    8.6000    5.2428   22.7073 C   0  0  0  0  0  0
    9.8260    6.1429   22.9433 C   0  0  0  0  0  0
   10.8520    5.5448   23.9280 C   0  0  0  0  0  0
   11.6006    4.3449   23.3713 C   0  0  0  0  0  0
   11.1923    3.0933   23.4234 N   0  0  0  0  0  0
   12.1418    2.3627   22.8489 C   0  0  0  0  0  0
   12.1090    0.8877   22.7093 C   0  0  0  0  0  0
   13.1949    0.2164   22.3730 N   0  0  0  0  0  0
   12.8442   -1.0512   22.3079 C   0  0  0  0  0  0
   11.5137   -1.2205   22.6295 C   0  0  0  0  0  0
   11.0223    0.0369   22.8861 N   0  0  0  0  0  0
    9.6312    0.3292   23.2284 C   0  0  0  0  0  0
    8.7356    0.4083   22.0075 C   0  0  0  0  0  0
    8.4238   -0.6191   21.1051 C   0  0  0  0  0  0
    7.5695   -0.1047   20.1448 C   0  0  0  0  0  0
    7.3200    1.1987   20.4088 O   0  0  0  0  0  0
    8.0121    1.4998   21.5367 C   0  0  0  0  0  0
   13.1696    3.1853   22.3999 C   0  0  0  0  0  0
   12.8096    4.4567   22.7414 N   0  0  0  0  0  0
    6.6889    5.2009   21.6600 H   0  0  0  0  0  0
    7.9713    5.9501   20.7303 H   0  0  0  0  0  0
    7.2317    6.8254   22.0708 H   0  0  0  0  0  0
    8.1153    5.0248   23.6606 H   0  0  0  0  0  0
    8.9400    4.2902   22.3083 H   0  0  0  0  0  0
   10.3156    6.3487   21.9911 H   0  0  0  0  0  0
    9.4881    7.1079   23.3240 H   0  0  0  0  0  0
   11.5603    6.3246   24.2140 H   0  0  0  0  0  0
   10.3449    5.2760   24.8558 H   0  0  0  0  0  0
   13.5410   -1.8265   22.0285 H   0  0  0  0  0  0
   10.8818   -2.0960   22.6762 H   0  0  0  0  0  0
    9.2864   -0.4659   23.8913 H   0  0  0  0  0  0
    9.5838    1.2292   23.8354 H   0  0  0  0  0  0
    8.7978   -1.6316   21.1430 H   0  0  0  0  0  0
    7.0953   -0.5177   19.2643 H   0  0  0  0  0  0
    7.8871    2.5095   21.8910 H   0  0  0  0  0  0
   14.1062    2.9707   21.9080 H   0  0  0  0  0  0
   13.3339    5.3055   22.5826 H   0  0  0  0  0  0
  1  2  1  0  0  0
  1 21  1  0  0  0
  1 22  1  0  0  0
  1 23  1  0  0  0
  2  3  1  0  0  0
  2 24  1  0  0  0
  2 25  1  0  0  0
  3  4  1  0  0  0
  3 26  1  0  0  0
  3 27  1  0  0  0
  4  5  1  0  0  0
  4 28  1  0  0  0
  4 29  1  0  0  0
  5 20  1  0  0  0
  5  6  2  0  0  0
  6  7  1  0  0  0
  7  8  1  0  0  0
  7 19  2  0  0  0
  8 12  1  0  0  0
  8  9  2  0  0  0
  9 10  1  0  0  0
 10 11  2  0  0  0
 10 30  1  0  0  0
 11 12  1  0  0  0
 11 31  1  0  0  0
 12 13  1  0  0  0
 13 14  1  0  0  0
 13 32  1  0  0  0
 13 33  1  0  0  0
 14 18  2  0  0  0
 14 15  1  0  0  0
 15 16  2  0  0  0
 15 34  1  0  0  0
 16 17  1  0  0  0
 16 35  1  0  0  0
 17 18  1  0  0  0
 18 36  1  0  0  0
 19 20  1  0  0  0
 19 37  1  0  0  0
 20 38  1  0  0  0
M  END
> <r_i_docking_score>
-5.23640555713594

$$$$
ligprep_5.maegz:389
                    3D
 Schrodinger Suite 2020-4.
 33 35  0  0  1  0            999 V2000
    8.3311    1.6539   24.8953 O   0  0  0  0  0  0
    8.5533    0.7170   24.1297 C   0  0  0  0  0  0
    9.6670   -0.2773   24.4812 C   0  0  0  0  0  0
   10.9628    0.0001   23.7185 C   0  0  0  0  0  0
   11.5769    1.2579   23.7862 C   0  0  0  0  0  0
   12.7695    1.4987   23.1078 C   0  0  0  0  0  0
   13.3704    0.4785   22.3746 C   0  0  0  0  0  0
   12.7759   -0.7803   22.3134 C   0  0  0  0  0  0
   13.5573   -2.0529   21.4516 Cl  0  0  0  0  0  0
   11.5701   -1.0177   22.9753 C   0  0  0  0  0  0
    7.9147    0.4951   22.9582 N   0  0  0  0  0  0
    6.8956    1.2568   22.3429 C   0  0  0  0  0  0
    6.2621    2.2423   23.0483 N   0  0  0  0  0  0
    5.3102    2.9961   22.4783 N   0  0  0  0  0  0
    4.9643    2.7700   21.1896 C   0  0  0  0  0  0
    5.5451    1.7715   20.3828 C   0  0  0  0  0  0
    5.1699    1.5578   19.0357 C   0  0  0  0  0  0
    5.8032    0.5696   18.2935 C   0  0  0  0  0  0
    6.7902   -0.2231   18.8602 C   0  0  0  0  0  0
    7.1814   -0.0427   20.1833 C   0  0  0  0  0  0
    6.5641    0.9668   20.9799 C   0  0  0  0  0  0
    9.3156   -1.2946   24.2967 H   0  0  0  0  0  0
    9.8766   -0.2218   25.5517 H   0  0  0  0  0  0
   11.1280    2.0532   24.3645 H   0  0  0  0  0  0
   13.2366    2.4717   23.1604 H   0  0  0  0  0  0
   14.3012    0.6672   21.8586 H   0  0  0  0  0  0
   11.1266   -2.0035   22.9280 H   0  0  0  0  0  0
    8.2313   -0.2996   22.4260 H   0  0  0  0  0  0
    4.2178    3.4310   20.7706 H   0  0  0  0  0  0
    4.4108    2.1834   18.5845 H   0  0  0  0  0  0
    5.5253    0.4199   17.2584 H   0  0  0  0  0  0
    7.2684   -0.9836   18.2586 H   0  0  0  0  0  0
    7.9586   -0.6687   20.5946 H   0  0  0  0  0  0
  1  2  2  0  0  0
  2  3  1  0  0  0
  2 11  1  0  0  0
  3  4  1  0  0  0
  3 22  1  0  0  0
  3 23  1  0  0  0
  4 10  2  0  0  0
  4  5  1  0  0  0
  5  6  2  0  0  0
  5 24  1  0  0  0
  6  7  1  0  0  0
  6 25  1  0  0  0
  7  8  2  0  0  0
  7 26  1  0  0  0
  8  9  1  0  0  0
  8 10  1  0  0  0
 10 27  1  0  0  0
 11 12  1  0  0  0
 11 28  1  0  0  0
 12 21  2  0  0  0
 12 13  1  0  0  0
 13 14  2  0  0  0
 14 15  1  0  0  0
 15 16  2  0  0  0
 15 29  1  0  0  0
 16 21  1  0  0  0
 16 17  1  0  0  0
 17 18  2  0  0  0
 17 30  1  0  0  0
 18 19  1  0  0  0
 18 31  1  0  0  0
 19 20  2  0  0  0
 19 32  1  0  0  0
 20 21  1  0  0  0
 20 33  1  0  0  0
M  END
> <r_i_docking_score>
-6.38382661614791

$$$$
ligprep_5.maegz:390
                    3D
 Schrodinger Suite 2020-4.
 38 40  0  0  1  0            999 V2000
    9.2647    6.0690   23.4400 C   0  0  0  0  0  0
   10.6787    6.1559   23.3143 O   0  0  0  0  0  0
   11.4034    4.9992   23.1047 C   0  0  0  0  0  0
   12.7533    5.1655   22.8149 C   0  0  0  0  0  0
   13.5695    4.0794   22.5303 C   0  0  0  0  0  0
   13.0454    2.7676   22.5632 C   0  0  0  0  0  0
   13.8331    1.6226   22.3079 C   0  0  0  0  0  0
   13.3972    0.3469   22.3887 N   0  0  0  0  0  0
   12.0906    0.1610   22.6820 C   0  0  0  0  0  0
   11.1827    1.2059   22.8766 C   0  0  0  0  0  0
    9.8305    0.8686   23.0029 N   0  0  0  0  0  0
    8.9090    1.1971   22.0756 C   0  0  0  0  0  0
    9.1449    1.9274   21.1081 O   0  0  0  0  0  0
    7.5125    0.5884   22.2721 C   0  0  0  0  0  0
    6.6938    0.6020   20.9866 C   0  0  0  0  0  0
    7.0539   -0.2227   19.9144 C   0  0  0  0  0  0
    6.3608   -0.1475   18.7090 C   0  0  0  0  0  0
    5.3008    0.7475   18.5690 C   0  0  0  0  0  0
    4.9164    1.5481   19.6452 C   0  0  0  0  0  0
    3.5694    2.6134   19.5079 Cl  0  0  0  0  0  0
    5.6190    1.4845   20.8466 C   0  0  0  0  0  0
   11.6678    2.5601   22.8683 C   0  0  0  0  0  0
   10.8633    3.7036   23.1380 C   0  0  0  0  0  0
    8.8507    7.0724   23.5377 H   0  0  0  0  0  0
    8.8133    5.6121   22.5569 H   0  0  0  0  0  0
    8.9749    5.5028   24.3263 H   0  0  0  0  0  0
   13.1723    6.1609   22.7963 H   0  0  0  0  0  0
   14.6157    4.2307   22.3060 H   0  0  0  0  0  0
   14.8732    1.7472   22.0471 H   0  0  0  0  0  0
   11.7603   -0.8677   22.6792 H   0  0  0  0  0  0
    9.5982    0.1406   23.6601 H   0  0  0  0  0  0
    7.0012    1.1586   23.0489 H   0  0  0  0  0  0
    7.5939   -0.4385   22.6317 H   0  0  0  0  0  0
    7.8878   -0.9040   20.0039 H   0  0  0  0  0  0
    6.6516   -0.7837   17.8891 H   0  0  0  0  0  0
    4.7690    0.8076   17.6315 H   0  0  0  0  0  0
    5.3264    2.1255   21.6650 H   0  0  0  0  0  0
    9.8201    3.5496   23.3596 H   0  0  0  0  0  0
  1  2  1  0  0  0
  1 24  1  0  0  0
  1 25  1  0  0  0
  1 26  1  0  0  0
  2  3  1  0  0  0
  3 23  2  0  0  0
  3  4  1  0  0  0
  4  5  2  0  0  0
  4 27  1  0  0  0
  5  6  1  0  0  0
  5 28  1  0  0  0
  6 22  2  0  0  0
  6  7  1  0  0  0
  7  8  2  0  0  0
  7 29  1  0  0  0
  8  9  1  0  0  0
  9 10  2  0  0  0
  9 30  1  0  0  0
 10 11  1  0  0  0
 10 22  1  0  0  0
 11 12  1  0  0  0
 11 31  1  0  0  0
 12 13  2  0  0  0
 12 14  1  0  0  0
 14 15  1  0  0  0
 14 32  1  0  0  0
 14 33  1  0  0  0
 15 21  2  0  0  0
 15 16  1  0  0  0
 16 17  2  0  0  0
 16 34  1  0  0  0
 17 18  1  0  0  0
 17 35  1  0  0  0
 18 19  2  0  0  0
 18 36  1  0  0  0
 19 20  1  0  0  0
 19 21  1  0  0  0
 21 37  1  0  0  0
 22 23  1  0  0  0
 23 38  1  0  0  0
M  END
> <r_i_docking_score>
-6.91350616477478

$$$$
ligprep_5.maegz:391
                    3D
 Schrodinger Suite 2020-4.
 38 40  0  0  1  0            999 V2000
    9.3788    1.9415   21.1258 O   0  0  0  0  0  0
    8.7765    2.3372   22.1271 C   0  0  0  0  0  0
    7.2706    2.0673   22.2827 C   0  0  0  0  0  0
    6.7750    0.9137   21.4130 C   0  0  0  0  0  0
    6.3741    1.1442   20.0907 C   0  0  0  0  0  0
    5.9794    0.0813   19.2788 C   0  0  0  0  0  0
    5.9697   -1.2162   19.7883 C   0  0  0  0  0  0
    6.3479   -1.4532   21.1100 C   0  0  0  0  0  0
    6.2776   -3.0534   21.7561 Cl  0  0  0  0  0  0
    6.7672   -0.3932   21.9146 C   0  0  0  0  0  0
    9.3510    3.0707   23.1052 N   0  0  0  0  0  0
   10.6945    3.4947   23.1067 C   0  0  0  0  0  0
   10.8954    4.8802   23.1594 C   0  0  0  0  0  0
   12.1079    5.4666   23.0193 N   0  0  0  0  0  0
   13.1692    4.6561   22.8114 C   0  0  0  0  0  0
   13.0672    3.2656   22.7858 C   0  0  0  0  0  0
   11.8244    2.6396   22.9849 C   0  0  0  0  0  0
   11.7634    1.1365   23.0679 C   0  0  0  0  0  0
   12.6349    0.3400   22.3080 C   0  0  0  0  0  0
   12.5303   -1.0488   22.3079 C   0  0  0  0  0  0
   11.5693   -1.6645   23.1038 C   0  0  0  0  0  0
   10.7355   -0.9018   23.9145 C   0  0  0  0  0  0
   10.8439    0.4874   23.9057 C   0  0  0  0  0  0
    6.7385    2.9774   22.0041 H   0  0  0  0  0  0
    7.0402    1.8648   23.3300 H   0  0  0  0  0  0
    6.3696    2.1471   19.6893 H   0  0  0  0  0  0
    5.6759    0.2643   18.2581 H   0  0  0  0  0  0
    5.6528   -2.0338   19.1583 H   0  0  0  0  0  0
    7.0794   -0.5856   22.9307 H   0  0  0  0  0  0
    8.7249    3.5492   23.7335 H   0  0  0  0  0  0
   10.0606    5.5601   23.2454 H   0  0  0  0  0  0
   14.1277    5.1423   22.6961 H   0  0  0  0  0  0
   13.9693    2.6848   22.6725 H   0  0  0  0  0  0
   13.3696    0.7950   21.6612 H   0  0  0  0  0  0
   13.1824   -1.6456   21.6862 H   0  0  0  0  0  0
   11.4811   -2.7421   23.0990 H   0  0  0  0  0  0
   10.0039   -1.3850   24.5439 H   0  0  0  0  0  0
   10.1882    1.0602   24.5448 H   0  0  0  0  0  0
  1  2  2  0  0  0
  2  3  1  0  0  0
  2 11  1  0  0  0
  3  4  1  0  0  0
  3 24  1  0  0  0
  3 25  1  0  0  0
  4 10  2  0  0  0
  4  5  1  0  0  0
  5  6  2  0  0  0
  5 26  1  0  0  0
  6  7  1  0  0  0
  6 27  1  0  0  0
  7  8  2  0  0  0
  7 28  1  0  0  0
  8  9  1  0  0  0
  8 10  1  0  0  0
 10 29  1  0  0  0
 11 12  1  0  0  0
 11 30  1  0  0  0
 12 17  2  0  0  0
 12 13  1  0  0  0
 13 14  2  0  0  0
 13 31  1  0  0  0
 14 15  1  0  0  0
 15 16  2  0  0  0
 15 32  1  0  0  0
 16 17  1  0  0  0
 16 33  1  0  0  0
 17 18  1  0  0  0
 18 23  2  0  0  0
 18 19  1  0  0  0
 19 20  2  0  0  0
 19 34  1  0  0  0
 20 21  1  0  0  0
 20 35  1  0  0  0
 21 22  2  0  0  0
 21 36  1  0  0  0
 22 23  1  0  0  0
 22 37  1  0  0  0
 23 38  1  0  0  0
M  END
> <r_i_docking_score>
-7.1179578337436

$$$$
ligprep_5.maegz:392
                    3D
 Schrodinger Suite 2020-4.
 43 46  0  0  1  0            999 V2000
    8.9265   -2.2331   24.8099 O   0  0  0  0  0  0
    9.1682   -2.7485   23.7173 C   0  0  0  0  0  0
   10.4104   -2.2950   22.9324 C   0  0  0  0  0  0
   10.3445   -0.8046   22.6011 C   0  0  0  0  0  0
   11.3776    0.0590   22.9736 C   0  0  0  0  0  0
   11.2782    1.4260   22.7082 C   0  0  0  0  0  0
   12.5733    2.4841   23.1305 Cl  0  0  0  0  0  0
   10.1380    1.9352   22.0846 C   0  0  0  0  0  0
    9.1147    1.0842   21.6653 C   0  0  0  0  0  0
    8.0427    1.6525   21.0058 O   0  0  0  0  0  0
    6.9081    0.8774   20.7486 C   0  0  2  0  0  0
    7.0068   -0.0554   19.5058 C   0  0  0  0  0  0
    5.8519    0.7793   18.9318 C   0  0  0  0  0  0
    5.1802    0.7473   17.9077 O   0  0  0  0  0  0
    5.8373    1.6086   20.0463 N   0  0  0  0  0  0
    9.2395   -0.2897   21.9146 C   0  0  0  0  0  0
    8.3735   -3.6545   23.1093 N   0  0  0  0  0  0
    7.1464   -4.1497   23.5776 C   0  0  0  0  0  0
    6.0896   -4.1404   22.6609 C   0  0  0  0  0  0
    4.8299   -4.5409   22.9485 N   0  0  0  0  0  0
    4.5946   -4.9847   24.2035 C   0  0  0  0  0  0
    5.5699   -5.0787   25.2230 C   0  0  0  0  0  0
    5.2685   -5.5614   26.5198 C   0  0  0  0  0  0
    6.2734   -5.6556   27.4787 C   0  0  0  0  0  0
    7.5836   -5.3126   27.1652 C   0  0  0  0  0  0
    7.9087   -4.8428   25.8964 C   0  0  0  0  0  0
    6.9050   -4.6729   24.8989 C   0  0  0  0  0  0
   10.5213   -2.8517   22.0007 H   0  0  0  0  0  0
   11.2940   -2.5247   23.5292 H   0  0  0  0  0  0
   12.2538   -0.3226   23.4765 H   0  0  0  0  0  0
   10.0570    2.9982   21.9075 H   0  0  0  0  0  0
    6.5778    0.4133   21.6843 H   0  0  0  0  0  0
    6.7520   -1.0966   19.6971 H   0  0  0  0  0  0
    7.9352    0.0222   18.9395 H   0  0  0  0  0  0
    5.0506    2.1191   20.4203 H   0  0  0  0  0  0
    8.4670   -0.9754   21.6017 H   0  0  0  0  0  0
    8.6178   -3.9025   22.1618 H   0  0  0  0  0  0
    6.2383   -3.7692   21.6571 H   0  0  0  0  0  0
    3.5799   -5.2916   24.4118 H   0  0  0  0  0  0
    4.2579   -5.8597   26.7610 H   0  0  0  0  0  0
    6.0411   -6.0294   28.4654 H   0  0  0  0  0  0
    8.3600   -5.4277   27.9087 H   0  0  0  0  0  0
    8.9388   -4.6089   25.6791 H   0  0  0  0  0  0
  1  2  2  0  0  0
  2  3  1  0  0  0
  2 17  1  0  0  0
  3  4  1  0  0  0
  3 28  1  0  0  0
  3 29  1  0  0  0
  4 16  2  0  0  0
  4  5  1  0  0  0
  5  6  2  0  0  0
  5 30  1  0  0  0
  6  7  1  0  0  0
  6  8  1  0  0  0
  8  9  2  0  0  0
  8 31  1  0  0  0
  9 10  1  0  0  0
  9 16  1  0  0  0
 10 11  1  0  0  0
 11 15  1  0  0  0
 11 12  1  0  0  0
 11 32  1  0  0  0
 12 13  1  0  0  0
 12 33  1  0  0  0
 12 34  1  0  0  0
 13 14  2  0  0  0
 13 15  1  0  0  0
 15 35  1  0  0  0
 16 36  1  0  0  0
 17 18  1  0  0  0
 17 37  1  0  0  0
 18 27  2  0  0  0
 18 19  1  0  0  0
 19 20  2  0  0  0
 19 38  1  0  0  0
 20 21  1  0  0  0
 21 22  2  0  0  0
 21 39  1  0  0  0
 22 27  1  0  0  0
 22 23  1  0  0  0
 23 24  2  0  0  0
 23 40  1  0  0  0
 24 25  1  0  0  0
 24 41  1  0  0  0
 25 26  2  0  0  0
 25 42  1  0  0  0
 26 27  1  0  0  0
 26 43  1  0  0  0
M  END
> <r_i_docking_score>
-6.32400269733417

$$$$
ligprep_5.maegz:393
                    3D
 Schrodinger Suite 2020-4.
 67 70  0  0  1  0            999 V2000
    3.6572    4.4364   24.2903 C   0  0  0  0  0  0
    5.1119    4.9084   24.5316 C   0  0  0  0  0  0
    5.2726    6.2918   23.8467 C   0  0  0  0  0  0
    5.3368    5.1167   26.0515 C   0  0  0  0  0  0
    6.0945    3.8392   23.9910 C   0  0  0  0  0  0
    6.9730    4.1019   22.9272 C   0  0  0  0  0  0
    7.8179    3.1090   22.4440 C   0  0  0  0  0  0
    7.7882    1.8305   23.0082 C   0  0  0  0  0  0
    8.6156    0.8039   22.4890 N   0  0  0  0  0  0
    9.9517    0.8850   22.8454 C   0  0  0  0  0  0
   10.3881    1.8103   23.5451 O   0  0  0  0  0  0
   10.9402   -0.1124   22.4417 C   0  0  0  0  0  0
   10.9225   -1.4331   21.9789 C   0  0  0  0  0  0
   12.2445   -1.8758   21.9090 C   0  0  0  0  0  0
   13.0316   -0.8190   22.3065 C   0  0  0  0  0  0
   12.2469    0.2265   22.6591 O   0  0  0  0  0  0
    7.9923   -0.2296   21.5831 C   0  0  1  0  0  0
    7.3912   -1.4443   22.3659 C   0  0  0  0  0  0
    6.2825   -1.8999   22.0722 O   0  0  0  0  0  0
    8.1327   -1.9481   23.3691 N   0  0  0  0  0  0
    7.8140   -3.1461   24.1488 C   0  0  0  0  0  0
    8.0956   -2.9661   25.6531 C   0  0  0  0  0  0
    7.2895   -1.8507   26.3075 C   0  0  0  0  0  0
    7.9147   -0.6697   26.7214 C   0  0  0  0  0  0
    7.1687    0.3451   27.3223 C   0  0  0  0  0  0
    5.7953    0.1862   27.5091 C   0  0  0  0  0  0
    5.1669   -0.9860   27.0936 C   0  0  0  0  0  0
    3.8354   -1.1394   27.2709 F   0  0  0  0  0  0
    5.9113   -2.0024   26.4971 C   0  0  0  0  0  0
    6.9745    0.3552   20.5891 C   0  0  0  0  0  0
    7.1723    0.2193   19.2061 C   0  0  0  0  0  0
    6.2395    0.7447   18.3074 C   0  0  0  0  0  0
    5.1259    1.4105   18.8086 C   0  0  0  0  0  0
    4.8765    1.5222   20.1314 N   0  0  0  0  0  0
    5.7755    0.9769   20.9864 C   0  0  0  0  0  0
    6.9409    1.5617   24.0827 C   0  0  0  0  0  0
    6.0977    2.5582   24.5629 C   0  0  0  0  0  0
    2.9328    5.1685   24.6477 H   0  0  0  0  0  0
    3.4383    3.4978   24.8002 H   0  0  0  0  0  0
    3.4634    4.2807   23.2268 H   0  0  0  0  0  0
    6.2775    6.6958   23.9817 H   0  0  0  0  0  0
    5.0733    6.2386   22.7745 H   0  0  0  0  0  0
    4.5772    7.0268   24.2564 H   0  0  0  0  0  0
    6.3650    5.4171   26.2623 H   0  0  0  0  0  0
    4.6829    5.8942   26.4512 H   0  0  0  0  0  0
    5.1381    4.2127   26.6287 H   0  0  0  0  0  0
    7.0093    5.0668   22.4454 H   0  0  0  0  0  0
    8.4818    3.3246   21.6210 H   0  0  0  0  0  0
   10.0823   -2.0554   21.7166 H   0  0  0  0  0  0
   12.5787   -2.8518   21.5884 H   0  0  0  0  0  0
   14.0962   -0.6762   22.4142 H   0  0  0  0  0  0
    8.7827   -0.6508   20.9690 H   0  0  0  0  0  0
    9.0281   -1.5219   23.5618 H   0  0  0  0  0  0
    6.7477   -3.3576   24.0410 H   0  0  0  0  0  0
    8.3455   -4.0111   23.7483 H   0  0  0  0  0  0
    7.8814   -3.8986   26.1770 H   0  0  0  0  0  0
    9.1621   -2.7961   25.8087 H   0  0  0  0  0  0
    8.9778   -0.5287   26.5814 H   0  0  0  0  0  0
    7.6546    1.2567   27.6367 H   0  0  0  0  0  0
    5.2177    0.9705   27.9728 H   0  0  0  0  0  0
    5.4131   -2.9080   26.1826 H   0  0  0  0  0  0
    8.0358   -0.3011   18.8195 H   0  0  0  0  0  0
    6.3623    0.6556   17.2396 H   0  0  0  0  0  0
    4.3953    1.8511   18.1463 H   0  0  0  0  0  0
    5.4842    1.0396   22.0217 H   0  0  0  0  0  0
    6.9065    0.5756   24.5188 H   0  0  0  0  0  0
    5.4298    2.3178   25.3763 H   0  0  0  0  0  0
  1  2  1  0  0  0
  1 38  1  0  0  0
  1 39  1  0  0  0
  1 40  1  0  0  0
  2  3  1  0  0  0
  2  4  1  0  0  0
  2  5  1  0  0  0
  3 41  1  0  0  0
  3 42  1  0  0  0
  3 43  1  0  0  0
  4 44  1  0  0  0
  4 45  1  0  0  0
  4 46  1  0  0  0
  5 37  2  0  0  0
  5  6  1  0  0  0
  6  7  2  0  0  0
  6 47  1  0  0  0
  7  8  1  0  0  0
  7 48  1  0  0  0
  8  9  1  0  0  0
  8 36  2  0  0  0
  9 10  1  0  0  0
  9 17  1  0  0  0
 10 11  2  0  0  0
 10 12  1  0  0  0
 12 16  1  0  0  0
 12 13  2  0  0  0
 13 14  1  0  0  0
 13 49  1  0  0  0
 14 15  2  0  0  0
 14 50  1  0  0  0
 15 16  1  0  0  0
 15 51  1  0  0  0
 17 18  1  0  0  0
 17 30  1  0  0  0
 17 52  1  0  0  0
 18 19  2  0  0  0
 18 20  1  0  0  0
 20 21  1  0  0  0
 20 53  1  0  0  0
 21 22  1  0  0  0
 21 54  1  0  0  0
 21 55  1  0  0  0
 22 23  1  0  0  0
 22 56  1  0  0  0
 22 57  1  0  0  0
 23 29  2  0  0  0
 23 24  1  0  0  0
 24 25  2  0  0  0
 24 58  1  0  0  0
 25 26  1  0  0  0
 25 59  1  0  0  0
 26 27  2  0  0  0
 26 60  1  0  0  0
 27 28  1  0  0  0
 27 29  1  0  0  0
 29 61  1  0  0  0
 30 35  2  0  0  0
 30 31  1  0  0  0
 31 32  2  0  0  0
 31 62  1  0  0  0
 32 33  1  0  0  0
 32 63  1  0  0  0
 33 34  2  0  0  0
 33 64  1  0  0  0
 34 35  1  0  0  0
 35 65  1  0  0  0
 36 37  1  0  0  0
 36 66  1  0  0  0
 37 67  1  0  0  0
M  END
> <r_i_docking_score>
-2.91160041266711

$$$$
ligprep_5.maegz:394
                    3D
 Schrodinger Suite 2020-4.
 46 49  0  0  1  0            999 V2000
    7.4106    7.4955   21.9095 C   0  0  0  0  0  0
    6.7696    6.2556   21.5081 N   0  0  0  0  0  0
    7.0047    5.0452   22.1669 C   0  0  0  0  0  0
    6.0183    4.0677   22.0630 C   0  0  0  0  0  0
    6.1952    2.8277   22.6611 C   0  0  0  0  0  0
    7.3899    2.5411   23.3331 C   0  0  0  0  0  0
    7.6040    1.2339   23.8411 N   0  0  0  0  0  0
    7.9639    1.0499   25.1519 C   0  0  0  0  0  0
    7.8313    1.9394   25.9953 O   0  0  0  0  0  0
    8.5830   -0.2757   25.6560 C   0  0  0  0  0  0
    9.4359   -1.0011   24.7133 N   0  0  0  0  0  0
    9.1624   -2.2898   24.4318 N   0  0  0  0  0  0
   10.0748   -2.7384   23.5077 N   0  0  0  0  0  0
   10.9254   -1.7105   23.2357 C   0  0  0  0  0  0
   12.0184   -1.6462   22.3617 C   0  0  0  0  0  0
   12.7393   -0.4516   22.3081 C   0  0  0  0  0  0
   12.3763    0.6499   23.0870 C   0  0  0  0  0  0
   11.2790    0.6178   23.9533 C   0  0  0  0  0  0
   10.5616   -0.5835   24.0141 C   0  0  0  0  0  0
    7.3256    0.1588   22.9631 C   0  0  0  0  0  0
    7.9376    0.1289   21.7020 C   0  0  0  0  0  0
    7.5927   -0.8529   20.7772 C   0  0  0  0  0  0
    6.6395   -1.8155   21.1080 C   0  0  0  0  0  0
    6.0351   -1.8063   22.3630 C   0  0  0  0  0  0
    4.8498   -3.0001   22.7529 Cl  0  0  0  0  0  0
    6.3705   -0.8178   23.2890 C   0  0  0  0  0  0
    8.3847    3.5242   23.4358 C   0  0  0  0  0  0
    8.1823    4.7805   22.8723 C   0  0  0  0  0  0
    7.1425    8.2958   21.2185 H   0  0  0  0  0  0
    7.0898    7.7859   22.9108 H   0  0  0  0  0  0
    8.4941    7.3961   21.9083 H   0  0  0  0  0  0
    6.0715    6.2438   20.7575 H   0  0  0  0  0  0
    5.1117    4.2672   21.5092 H   0  0  0  0  0  0
    5.4189    2.0813   22.5643 H   0  0  0  0  0  0
    7.7821   -0.9242   26.0127 H   0  0  0  0  0  0
    9.2114   -0.0547   26.5200 H   0  0  0  0  0  0
   12.2899   -2.4971   21.7533 H   0  0  0  0  0  0
   13.5905   -0.3732   21.6463 H   0  0  0  0  0  0
   12.9597    1.5567   23.0111 H   0  0  0  0  0  0
   11.0047    1.4797   24.5441 H   0  0  0  0  0  0
    8.6667    0.8795   21.4323 H   0  0  0  0  0  0
    8.0598   -0.8654   19.8025 H   0  0  0  0  0  0
    6.3693   -2.5692   20.3833 H   0  0  0  0  0  0
    5.8650   -0.7957   24.2428 H   0  0  0  0  0  0
    9.3154    3.3150   23.9420 H   0  0  0  0  0  0
    8.9644    5.5193   22.9456 H   0  0  0  0  0  0
  1  2  1  0  0  0
  1 29  1  0  0  0
  1 30  1  0  0  0
  1 31  1  0  0  0
  2  3  1  0  0  0
  2 32  1  0  0  0
  3 28  2  0  0  0
  3  4  1  0  0  0
  4  5  2  0  0  0
  4 33  1  0  0  0
  5  6  1  0  0  0
  5 34  1  0  0  0
  6  7  1  0  0  0
  6 27  2  0  0  0
  7  8  1  0  0  0
  7 20  1  0  0  0
  8  9  2  0  0  0
  8 10  1  0  0  0
 10 11  1  0  0  0
 10 35  1  0  0  0
 10 36  1  0  0  0
 11 19  1  0  0  0
 11 12  1  0  0  0
 12 13  2  0  0  0
 13 14  1  0  0  0
 14 19  2  0  0  0
 14 15  1  0  0  0
 15 16  2  0  0  0
 15 37  1  0  0  0
 16 17  1  0  0  0
 16 38  1  0  0  0
 17 18  2  0  0  0
 17 39  1  0  0  0
 18 19  1  0  0  0
 18 40  1  0  0  0
 20 26  2  0  0  0
 20 21  1  0  0  0
 21 22  2  0  0  0
 21 41  1  0  0  0
 22 23  1  0  0  0
 22 42  1  0  0  0
 23 24  2  0  0  0
 23 43  1  0  0  0
 24 25  1  0  0  0
 24 26  1  0  0  0
 26 44  1  0  0  0
 27 28  1  0  0  0
 27 45  1  0  0  0
 28 46  1  0  0  0
M  END
> <r_i_docking_score>
-4.08032088444021

$$$$
ligprep_5.maegz:395
                    3D
 Schrodinger Suite 2020-4.
 49 52  0  0  1  0            999 V2000
    6.5607   -0.8532   18.6054 C   0  0  0  0  0  0
    5.9382    0.3390   19.3089 C   0  0  0  0  0  0
    5.1694    1.2337   18.5607 C   0  0  0  0  0  0
    4.6169    2.3469   19.1915 C   0  0  0  0  0  0
    4.8043    2.6174   20.5072 N   0  0  0  0  0  0
    5.5687    1.7585   21.2231 C   0  0  0  0  0  0
    6.1350    0.6019   20.6800 C   0  0  0  0  0  0
    6.8950   -0.2029   21.5368 N   0  0  0  0  0  0
    6.6115   -1.4756   21.8876 C   0  0  0  0  0  0
    5.6351   -2.0967   21.4554 O   0  0  0  0  0  0
    7.5177   -2.1221   22.9677 C   0  0  1  0  0  0
    7.5352   -3.6748   22.9640 C   0  0  0  0  0  0
    7.5693   -4.3066   21.9082 O   0  0  0  0  0  0
    7.4560   -4.3682   24.2457 C   0  0  0  0  0  0
    8.5202   -4.2587   25.0825 C   0  0  0  0  0  0
    8.5802   -4.8739   26.3936 C   0  0  0  0  0  0
    9.5695   -4.8530   27.1077 O   0  0  0  0  0  0
    7.4402   -5.4956   26.7642 N   0  0  0  0  0  0
    6.2802   -5.6525   25.9875 C   0  0  0  0  0  0
    5.1953   -6.3719   26.4864 C   0  0  0  0  0  0
    4.0628   -6.5572   25.6931 C   0  0  0  0  0  0
    4.0200   -6.0332   24.4011 C   0  0  0  0  0  0
    5.1039   -5.3136   23.8956 C   0  0  0  0  0  0
    6.2454   -5.1145   24.6858 C   0  0  0  0  0  0
    8.9519   -1.5387   22.9877 C   0  0  0  0  0  0
    9.9745   -2.0278   22.1620 C   0  0  0  0  0  0
   11.2431   -1.4475   22.1749 C   0  0  0  0  0  0
   11.4955   -0.3356   22.9742 C   0  0  0  0  0  0
   10.4796    0.1885   23.7710 C   0  0  0  0  0  0
   10.7686    1.6082   24.7074 Cl  0  0  0  0  0  0
    9.2221   -0.4192   23.7900 C   0  0  0  0  0  0
    7.6401   -0.8533   18.7614 H   0  0  0  0  0  0
    6.1573   -1.7832   19.0028 H   0  0  0  0  0  0
    6.3697   -0.8412   17.5326 H   0  0  0  0  0  0
    5.0004    1.0752   17.5061 H   0  0  0  0  0  0
    4.0251    3.0626   18.6344 H   0  0  0  0  0  0
    5.6891    2.0030   22.2694 H   0  0  0  0  0  0
    7.6299    0.2614   22.0476 H   0  0  0  0  0  0
    7.0341   -1.8437   23.9047 H   0  0  0  0  0  0
    9.4044   -3.7075   24.7913 H   0  0  0  0  0  0
    7.4972   -5.9306   27.6692 H   0  0  0  0  0  0
    5.2332   -6.7996   27.4774 H   0  0  0  0  0  0
    3.2194   -7.1135   26.0771 H   0  0  0  0  0  0
    3.1444   -6.1857   23.7858 H   0  0  0  0  0  0
    5.0505   -4.9213   22.8891 H   0  0  0  0  0  0
    9.7931   -2.8530   21.4884 H   0  0  0  0  0  0
   12.0178   -1.8428   21.5329 H   0  0  0  0  0  0
   12.4684    0.1335   22.9583 H   0  0  0  0  0  0
    8.4467   -0.0018   24.4180 H   0  0  0  0  0  0
  1  2  1  0  0  0
  1 32  1  0  0  0
  1 33  1  0  0  0
  1 34  1  0  0  0
  2  7  2  0  0  0
  2  3  1  0  0  0
  3  4  2  0  0  0
  3 35  1  0  0  0
  4  5  1  0  0  0
  4 36  1  0  0  0
  5  6  2  0  0  0
  6  7  1  0  0  0
  6 37  1  0  0  0
  7  8  1  0  0  0
  8  9  1  0  0  0
  8 38  1  0  0  0
  9 10  2  0  0  0
  9 11  1  0  0  0
 11 12  1  0  0  0
 11 25  1  0  0  0
 11 39  1  0  0  0
 12 13  2  0  0  0
 12 14  1  0  0  0
 14 24  1  0  0  0
 14 15  2  0  0  0
 15 16  1  0  0  0
 15 40  1  0  0  0
 16 17  2  0  0  0
 16 18  1  0  0  0
 18 19  1  0  0  0
 18 41  1  0  0  0
 19 24  2  0  0  0
 19 20  1  0  0  0
 20 21  2  0  0  0
 20 42  1  0  0  0
 21 22  1  0  0  0
 21 43  1  0  0  0
 22 23  2  0  0  0
 22 44  1  0  0  0
 23 24  1  0  0  0
 23 45  1  0  0  0
 25 31  2  0  0  0
 25 26  1  0  0  0
 26 27  2  0  0  0
 26 46  1  0  0  0
 27 28  1  0  0  0
 27 47  1  0  0  0
 28 29  2  0  0  0
 28 48  1  0  0  0
 29 30  1  0  0  0
 29 31  1  0  0  0
 31 49  1  0  0  0
M  END
> <r_i_docking_score>
-6.16197870427733

$$$$
ligprep_5.maegz:396
                    3D
 Schrodinger Suite 2020-4.
 52 55  0  0  1  0            999 V2000
   12.3685    6.3240   23.5775 C   0  0  0  0  0  0
   12.9514    5.1294   22.9677 N   0  0  0  0  0  0
   13.9363    5.3279   21.9081 C   0  0  0  0  0  0
   12.3144    3.8690   23.1079 C   0  0  0  0  0  0
   12.8584    2.6929   22.5632 C   0  0  0  0  0  0
   12.3054    1.4615   22.7094 N   0  0  0  0  0  0
   11.1501    1.3666   23.4112 C   0  0  0  0  0  0
   10.5201    2.4722   23.9837 C   0  0  0  0  0  0
    9.2160    2.3206   24.7545 C   0  0  0  0  0  0
    8.0274    2.6567   23.9439 N   0  0  0  0  0  0
    7.3037    1.6354   23.3780 C   0  0  0  0  0  0
    7.5702    0.4503   23.5953 O   0  0  0  0  0  0
    6.2173    1.9468   22.4561 C   0  0  0  0  0  0
    5.1786    2.7112   22.9058 C   0  0  0  0  0  0
    4.0474    3.1461   22.1028 C   0  0  0  0  0  0
    3.1005    3.7938   22.5360 O   0  0  0  0  0  0
    4.1122    2.7473   20.8172 N   0  0  0  0  0  0
    5.0988    1.9378   20.2426 C   0  0  0  0  0  0
    4.9938    1.5610   18.9060 C   0  0  0  0  0  0
    5.9698    0.7469   18.3343 C   0  0  0  0  0  0
    7.0480    0.3067   19.1022 C   0  0  0  0  0  0
    7.1596    0.6839   20.4412 C   0  0  0  0  0  0
    6.1822    1.5028   21.0287 C   0  0  0  0  0  0
    7.8491    4.0270   23.6304 C   0  0  0  0  0  0
    7.9673    4.5026   22.3161 C   0  0  0  0  0  0
    7.7744    5.8554   22.0361 C   0  0  0  0  0  0
    7.4947    6.7487   23.0687 C   0  0  0  0  0  0
    7.4021    6.2888   24.3826 C   0  0  0  0  0  0
    7.0706    7.3969   25.6629 Cl  0  0  0  0  0  0
    7.5755    4.9326   24.6629 C   0  0  0  0  0  0
   11.1223    3.7243   23.8373 C   0  0  0  0  0  0
   11.4277    6.5830   23.0899 H   0  0  0  0  0  0
   12.1561    6.1592   24.6343 H   0  0  0  0  0  0
   13.0416    7.1784   23.5077 H   0  0  0  0  0  0
   13.4721    5.1476   20.9381 H   0  0  0  0  0  0
   14.3414    6.3401   21.9082 H   0  0  0  0  0  0
   14.7696    4.6344   22.0115 H   0  0  0  0  0  0
   13.7809    2.7033   22.0047 H   0  0  0  0  0  0
   10.7221    0.3779   23.4979 H   0  0  0  0  0  0
    9.1679    1.3149   25.1773 H   0  0  0  0  0  0
    9.2459    2.9896   25.6146 H   0  0  0  0  0  0
    5.1618    3.0584   23.9290 H   0  0  0  0  0  0
    3.3469    3.0755   20.2528 H   0  0  0  0  0  0
    4.1639    1.9067   18.3079 H   0  0  0  0  0  0
    5.8941    0.4569   17.2959 H   0  0  0  0  0  0
    7.7968   -0.3303   18.6515 H   0  0  0  0  0  0
    8.0010    0.3246   21.0157 H   0  0  0  0  0  0
    8.2015    3.8255   21.5083 H   0  0  0  0  0  0
    7.8456    6.2088   21.0170 H   0  0  0  0  0  0
    7.3483    7.7956   22.8466 H   0  0  0  0  0  0
    7.4885    4.5865   25.6825 H   0  0  0  0  0  0
   10.6369    4.5787   24.2821 H   0  0  0  0  0  0
  1  2  1  0  0  0
  1 32  1  0  0  0
  1 33  1  0  0  0
  1 34  1  0  0  0
  2  3  1  0  0  0
  2  4  1  0  0  0
  3 35  1  0  0  0
  3 36  1  0  0  0
  3 37  1  0  0  0
  4 31  2  0  0  0
  4  5  1  0  0  0
  5  6  2  0  0  0
  5 38  1  0  0  0
  6  7  1  0  0  0
  7  8  2  0  0  0
  7 39  1  0  0  0
  8  9  1  0  0  0
  8 31  1  0  0  0
  9 10  1  0  0  0
  9 40  1  0  0  0
  9 41  1  0  0  0
 10 11  1  0  0  0
 10 24  1  0  0  0
 11 12  2  0  0  0
 11 13  1  0  0  0
 13 23  1  0  0  0
 13 14  2  0  0  0
 14 15  1  0  0  0
 14 42  1  0  0  0
 15 16  2  0  0  0
 15 17  1  0  0  0
 17 18  1  0  0  0
 17 43  1  0  0  0
 18 23  2  0  0  0
 18 19  1  0  0  0
 19 20  2  0  0  0
 19 44  1  0  0  0
 20 21  1  0  0  0
 20 45  1  0  0  0
 21 22  2  0  0  0
 21 46  1  0  0  0
 22 23  1  0  0  0
 22 47  1  0  0  0
 24 30  2  0  0  0
 24 25  1  0  0  0
 25 26  2  0  0  0
 25 48  1  0  0  0
 26 27  1  0  0  0
 26 49  1  0  0  0
 27 28  2  0  0  0
 27 50  1  0  0  0
 28 29  1  0  0  0
 28 30  1  0  0  0
 30 51  1  0  0  0
 31 52  1  0  0  0
M  END
> <r_i_docking_score>
-4.85218772985242

$$$$
ligprep_5.maegz:397
                    3D
 Schrodinger Suite 2020-4.
 52 55  0  0  1  0            999 V2000
    9.8248    6.3746   23.3087 C   0  0  0  0  0  0
   11.2203    6.1764   23.1078 O   0  0  0  0  0  0
   11.6967    4.8892   22.9527 C   0  0  0  0  0  0
   13.0178    4.7556   22.5222 C   0  0  0  0  0  0
   13.5696    3.4943   22.3080 C   0  0  0  0  0  0
   12.8187    2.3481   22.5578 C   0  0  0  0  0  0
   11.4960    2.4569   22.9887 C   0  0  0  0  0  0
   10.6604    1.2072   23.2241 C   0  0  0  0  0  0
   10.4576    0.3788   21.9356 C   0  0  0  0  0  0
    9.3450   -0.5874   22.0270 N   0  0  0  0  0  0
    9.5599   -1.8244   22.5916 C   0  0  0  0  0  0
   10.7025   -2.1507   22.9267 O   0  0  0  0  0  0
    8.4546   -2.7603   22.8575 C   0  0  0  0  0  0
    7.4948   -2.9523   21.9081 C   0  0  0  0  0  0
    6.3667   -3.8561   21.9938 C   0  0  0  0  0  0
    5.5697   -4.0530   21.0863 O   0  0  0  0  0  0
    6.2696   -4.4951   23.1720 N   0  0  0  0  0  0
    7.1959   -4.4427   24.2157 C   0  0  0  0  0  0
    7.0098   -5.2487   25.3387 C   0  0  0  0  0  0
    7.9702   -5.2610   26.3484 C   0  0  0  0  0  0
    9.1120   -4.4734   26.2300 C   0  0  0  0  0  0
    9.2834   -3.6529   25.1144 C   0  0  0  0  0  0
    8.3282   -3.6113   24.0929 C   0  0  0  0  0  0
    8.0906   -0.0438   21.6893 C   0  0  0  0  0  0
    7.2502    0.5021   22.6668 C   0  0  0  0  0  0
    6.0696    1.1432   22.2866 C   0  0  0  0  0  0
    5.7168    1.2254   20.9380 C   0  0  0  0  0  0
    6.5427    0.6665   19.9639 C   0  0  0  0  0  0
    6.0952    0.7485   18.2990 Cl  0  0  0  0  0  0
    7.7324    0.0433   20.3372 C   0  0  0  0  0  0
   10.9397    3.7266   23.1825 C   0  0  0  0  0  0
    9.6089    7.4428   23.3277 H   0  0  0  0  0  0
    9.2393    5.9361   22.4978 H   0  0  0  0  0  0
    9.4931    5.9553   24.2594 H   0  0  0  0  0  0
   13.6136    5.6375   22.3393 H   0  0  0  0  0  0
   14.5929    3.4021   21.9749 H   0  0  0  0  0  0
   13.2652    1.3768   22.4023 H   0  0  0  0  0  0
    9.6975    1.5054   23.6395 H   0  0  0  0  0  0
   11.1496    0.6000   23.9868 H   0  0  0  0  0  0
   11.3790   -0.1460   21.6773 H   0  0  0  0  0  0
   10.2507    1.0554   21.1085 H   0  0  0  0  0  0
    7.5464   -2.4379   20.9647 H   0  0  0  0  0  0
    5.4841   -5.1208   23.2283 H   0  0  0  0  0  0
    6.1393   -5.8816   25.4258 H   0  0  0  0  0  0
    7.8411   -5.8996   27.2113 H   0  0  0  0  0  0
    9.8695   -4.5067   27.0005 H   0  0  0  0  0  0
   10.1816   -3.0669   25.0527 H   0  0  0  0  0  0
    7.5184    0.4495   23.7121 H   0  0  0  0  0  0
    5.4186    1.5680   23.0366 H   0  0  0  0  0  0
    4.7959    1.7130   20.6503 H   0  0  0  0  0  0
    8.3696   -0.3863   19.5770 H   0  0  0  0  0  0
    9.9128    3.7990   23.5046 H   0  0  0  0  0  0
  1  2  1  0  0  0
  1 32  1  0  0  0
  1 33  1  0  0  0
  1 34  1  0  0  0
  2  3  1  0  0  0
  3 31  2  0  0  0
  3  4  1  0  0  0
  4  5  2  0  0  0
  4 35  1  0  0  0
  5  6  1  0  0  0
  5 36  1  0  0  0
  6  7  2  0  0  0
  6 37  1  0  0  0
  7  8  1  0  0  0
  7 31  1  0  0  0
  8  9  1  0  0  0
  8 38  1  0  0  0
  8 39  1  0  0  0
  9 10  1  0  0  0
  9 40  1  0  0  0
  9 41  1  0  0  0
 10 11  1  0  0  0
 10 24  1  0  0  0
 11 12  2  0  0  0
 11 13  1  0  0  0
 13 23  1  0  0  0
 13 14  2  0  0  0
 14 15  1  0  0  0
 14 42  1  0  0  0
 15 16  2  0  0  0
 15 17  1  0  0  0
 17 18  1  0  0  0
 17 43  1  0  0  0
 18 23  2  0  0  0
 18 19  1  0  0  0
 19 20  2  0  0  0
 19 44  1  0  0  0
 20 21  1  0  0  0
 20 45  1  0  0  0
 21 22  2  0  0  0
 21 46  1  0  0  0
 22 23  1  0  0  0
 22 47  1  0  0  0
 24 30  2  0  0  0
 24 25  1  0  0  0
 25 26  2  0  0  0
 25 48  1  0  0  0
 26 27  1  0  0  0
 26 49  1  0  0  0
 27 28  2  0  0  0
 27 50  1  0  0  0
 28 29  1  0  0  0
 28 30  1  0  0  0
 30 51  1  0  0  0
 31 52  1  0  0  0
M  END
> <r_i_docking_score>
-5.74221085253089

$$$$
ligprep_5.maegz:398
                    3D
 Schrodinger Suite 2020-4.
 41 44  0  0  1  0            999 V2000
    5.2761    0.7471   17.9077 O   0  0  0  0  0  0
    5.9399    0.7360   18.9349 C   0  0  0  0  0  0
    7.0514   -0.1590   19.5088 C   0  0  0  0  0  0
    7.0211    0.7916   20.7402 C   0  0  1  0  0  0
    8.1781    1.5484   20.9292 O   0  0  0  0  0  0
    9.1973    1.0592   21.7187 C   0  0  0  0  0  0
   10.1346    1.9846   22.1759 C   0  0  0  0  0  0
   11.2090    1.5794   22.9637 C   0  0  0  0  0  0
   12.3643    2.7370   23.5059 Cl  0  0  0  0  0  0
   11.3494    0.2393   23.3140 C   0  0  0  0  0  0
   10.4196   -0.7060   22.8710 C   0  0  0  0  0  0
   10.5351   -2.1680   23.3007 C   0  0  0  0  0  0
    9.4524   -2.6010   24.3080 C   0  0  0  0  0  0
    8.5998   -1.8081   24.7144 O   0  0  0  0  0  0
    9.5053   -3.8834   24.7079 N   0  0  0  0  0  0
    8.5599   -4.4612   25.5248 N   0  0  0  0  0  0
    8.6689   -4.6823   26.8786 C   0  0  0  0  0  0
    7.6198   -5.2523   27.4144 N   0  0  0  0  0  0
    6.7679   -5.4466   26.3590 C   0  0  0  0  0  0
    5.4956   -6.0369   26.3498 C   0  0  0  0  0  0
    4.8201   -6.1292   25.1309 C   0  0  0  0  0  0
    5.3891   -5.6526   23.9486 C   0  0  0  0  0  0
    6.6533   -5.0564   23.9221 C   0  0  0  0  0  0
    7.3292   -4.9640   25.1462 C   0  0  0  0  0  0
    9.3544   -0.2923   22.0619 C   0  0  0  0  0  0
    5.9515    1.5456   20.0618 N   0  0  0  0  0  0
    7.9701   -0.1413   18.9265 H   0  0  0  0  0  0
    6.7413   -1.1819   19.7170 H   0  0  0  0  0  0
    6.7138    0.3528   21.6947 H   0  0  0  0  0  0
   10.0266    3.0269   21.9114 H   0  0  0  0  0  0
   12.1802   -0.0536   23.9354 H   0  0  0  0  0  0
   11.5149   -2.3514   23.7446 H   0  0  0  0  0  0
   10.4674   -2.7987   22.4123 H   0  0  0  0  0  0
   10.2574   -4.4716   24.3826 H   0  0  0  0  0  0
    9.5674   -4.3866   27.4014 H   0  0  0  0  0  0
    5.0567   -6.4182   27.2602 H   0  0  0  0  0  0
    3.8403   -6.5839   25.0995 H   0  0  0  0  0  0
    4.8342   -5.7526   23.0267 H   0  0  0  0  0  0
    7.0848   -4.6888   23.0023 H   0  0  0  0  0  0
    8.6457   -1.0306   21.7185 H   0  0  0  0  0  0
    5.1858    2.0823   20.4425 H   0  0  0  0  0  0
  1  2  2  0  0  0
  2 26  1  0  0  0
  2  3  1  0  0  0
  3  4  1  0  0  0
  3 27  1  0  0  0
  3 28  1  0  0  0
  4  5  1  0  0  0
  4 26  1  0  0  0
  4 29  1  0  0  0
  5  6  1  0  0  0
  6 25  2  0  0  0
  6  7  1  0  0  0
  7  8  2  0  0  0
  7 30  1  0  0  0
  8  9  1  0  0  0
  8 10  1  0  0  0
 10 11  2  0  0  0
 10 31  1  0  0  0
 11 12  1  0  0  0
 11 25  1  0  0  0
 12 13  1  0  0  0
 12 32  1  0  0  0
 12 33  1  0  0  0
 13 14  2  0  0  0
 13 15  1  0  0  0
 15 16  1  0  0  0
 15 34  1  0  0  0
 16 24  1  0  0  0
 16 17  1  0  0  0
 17 18  2  0  0  0
 17 35  1  0  0  0
 18 19  1  0  0  0
 19 24  2  0  0  0
 19 20  1  0  0  0
 20 21  2  0  0  0
 20 36  1  0  0  0
 21 22  1  0  0  0
 21 37  1  0  0  0
 22 23  2  0  0  0
 22 38  1  0  0  0
 23 24  1  0  0  0
 23 39  1  0  0  0
 25 40  1  0  0  0
 26 41  1  0  0  0
M  END
> <r_i_docking_score>
-6.8191436287026

$$$$
ligprep_5.maegz:399
                    3D
 Schrodinger Suite 2020-4.
 35 36  0  0  1  0            999 V2000
   13.0876   -2.4298   21.9805 C   0  0  0  0  0  0
   13.5697   -1.1115   22.2176 O   0  0  0  0  0  0
   12.6759   -0.1191   22.5655 C   0  0  0  0  0  0
   13.1954    1.1677   22.7065 C   0  0  0  0  0  0
   12.3692    2.2457   23.0155 C   0  0  0  0  0  0
   13.0268    3.8396   23.1080 Cl  0  0  0  0  0  0
   11.0075    2.0380   23.2158 C   0  0  0  0  0  0
   10.4639    0.7556   23.0834 C   0  0  0  0  0  0
    8.9540    0.5512   23.1928 C   0  0  0  0  0  0
    8.1973    1.0194   21.9380 C   0  0  0  0  0  0
    8.7995    1.5472   21.0023 O   0  0  0  0  0  0
    6.8618    0.8486   21.9514 N   0  0  0  0  0  0
    6.0020    1.2880   20.9353 C   0  0  0  0  0  0
    5.0211    2.2218   21.2856 C   0  0  0  0  0  0
    4.1426    2.7464   20.3979 N   0  0  0  0  0  0
    4.2418    2.3465   19.1079 C   0  0  0  0  0  0
    5.1694    1.3991   18.6734 C   0  0  0  0  0  0
    6.0663    0.8492   19.5939 C   0  0  0  0  0  0
    7.0412   -0.2189   19.1116 C   0  0  0  0  0  0
   11.2989   -0.3173   22.7550 C   0  0  0  0  0  0
   13.9256   -3.0729   21.7119 H   0  0  0  0  0  0
   12.6198   -2.8527   22.8708 H   0  0  0  0  0  0
   12.3744   -2.4533   21.1553 H   0  0  0  0  0  0
   14.2495    1.3359   22.5423 H   0  0  0  0  0  0
   10.3656    2.8802   23.4312 H   0  0  0  0  0  0
    8.5829    1.1060   24.0554 H   0  0  0  0  0  0
    8.7295   -0.5025   23.3642 H   0  0  0  0  0  0
    6.4248    0.5458   22.8083 H   0  0  0  0  0  0
    4.9278    2.5796   22.2998 H   0  0  0  0  0  0
    3.5638    2.8143   18.4082 H   0  0  0  0  0  0
    5.1909    1.1082   17.6326 H   0  0  0  0  0  0
    7.2778   -0.9300   19.9023 H   0  0  0  0  0  0
    6.6080   -0.8040   18.2996 H   0  0  0  0  0  0
    7.9671    0.2324   18.7530 H   0  0  0  0  0  0
   10.8620   -1.2959   22.6257 H   0  0  0  0  0  0
  1  2  1  0  0  0
  1 21  1  0  0  0
  1 22  1  0  0  0
  1 23  1  0  0  0
  2  3  1  0  0  0
  3 20  2  0  0  0
  3  4  1  0  0  0
  4  5  2  0  0  0
  4 24  1  0  0  0
  5  6  1  0  0  0
  5  7  1  0  0  0
  7  8  2  0  0  0
  7 25  1  0  0  0
  8  9  1  0  0  0
  8 20  1  0  0  0
  9 10  1  0  0  0
  9 26  1  0  0  0
  9 27  1  0  0  0
 10 11  2  0  0  0
 10 12  1  0  0  0
 12 13  1  0  0  0
 12 28  1  0  0  0
 13 18  2  0  0  0
 13 14  1  0  0  0
 14 15  2  0  0  0
 14 29  1  0  0  0
 15 16  1  0  0  0
 16 17  2  0  0  0
 16 30  1  0  0  0
 17 18  1  0  0  0
 17 31  1  0  0  0
 18 19  1  0  0  0
 19 32  1  0  0  0
 19 33  1  0  0  0
 19 34  1  0  0  0
 20 35  1  0  0  0
M  END
> <r_i_docking_score>
-6.52147723362597

$$$$
ligprep_5.maegz:400
                    3D
 Schrodinger Suite 2020-4.
 43 45  0  0  1  0            999 V2000
   10.7463   -1.1415   23.1078 C   0  0  0  0  0  0
   11.5693   -0.3283   23.9338 O   0  0  0  0  0  0
   11.6374    0.9901   23.5493 C   0  0  0  0  0  0
   12.7086    1.4322   22.7634 C   0  0  0  0  0  0
   13.9694    0.3436   22.3072 Cl  0  0  0  0  0  0
   12.7676    2.7609   22.3461 C   0  0  0  0  0  0
   11.7597    3.6504   22.7097 C   0  0  0  0  0  0
   10.7040    3.2211   23.5138 C   0  0  0  0  0  0
   10.6428    1.8906   23.9592 C   0  0  0  0  0  0
    9.6766    1.3991   24.8162 O   0  0  0  0  0  0
    8.4809    2.1297   25.0948 C   0  0  0  0  0  0
    7.4395    1.9325   23.9691 C   0  0  0  0  0  0
    7.2150    0.5235   23.6360 N   0  0  0  0  0  0
    6.6414   -0.3861   24.4451 C   0  0  0  0  0  0
    6.1428   -0.1067   25.5350 O   0  0  0  0  0  0
    6.7335   -1.7512   23.9659 C   0  0  0  0  0  0
    6.1609   -2.0510   22.7631 C   0  0  0  0  0  0
    6.1894   -3.3571   22.1251 C   0  0  0  0  0  0
    5.5696   -3.6534   21.1078 O   0  0  0  0  0  0
    6.9497   -4.2607   22.7753 N   0  0  0  0  0  0
    7.5798   -4.0820   24.0142 C   0  0  0  0  0  0
    8.2675   -5.1415   24.6016 C   0  0  0  0  0  0
    8.8636   -4.9819   25.8510 C   0  0  0  0  0  0
    8.7644   -3.7603   26.5141 C   0  0  0  0  0  0
    8.0873   -2.6884   25.9269 C   0  0  0  0  0  0
    7.4833   -2.8389   24.6685 C   0  0  0  0  0  0
   10.7506   -2.1639   23.4869 H   0  0  0  0  0  0
    9.7113   -0.7980   23.1028 H   0  0  0  0  0  0
   11.1127   -1.1679   22.0806 H   0  0  0  0  0  0
   13.5917    3.0976   21.7336 H   0  0  0  0  0  0
   11.7925    4.6758   22.3702 H   0  0  0  0  0  0
    9.9518    3.9431   23.7875 H   0  0  0  0  0  0
    8.6608    3.1826   25.3136 H   0  0  0  0  0  0
    8.0833    1.7152   26.0223 H   0  0  0  0  0  0
    7.7859    2.4343   23.0655 H   0  0  0  0  0  0
    6.4942    2.4073   24.2391 H   0  0  0  0  0  0
    7.5928    0.1987   22.7584 H   0  0  0  0  0  0
    5.6181   -1.2915   22.2138 H   0  0  0  0  0  0
    6.9811   -5.1594   22.3242 H   0  0  0  0  0  0
    8.3588   -6.0832   24.0868 H   0  0  0  0  0  0
    9.4013   -5.8038   26.3058 H   0  0  0  0  0  0
    9.2217   -3.6513   27.4865 H   0  0  0  0  0  0
    8.0313   -1.7479   26.4574 H   0  0  0  0  0  0
  1  2  1  0  0  0
  1 27  1  0  0  0
  1 28  1  0  0  0
  1 29  1  0  0  0
  2  3  1  0  0  0
  3  9  2  0  0  0
  3  4  1  0  0  0
  4  5  1  0  0  0
  4  6  2  0  0  0
  6  7  1  0  0  0
  6 30  1  0  0  0
  7  8  2  0  0  0
  7 31  1  0  0  0
  8  9  1  0  0  0
  8 32  1  0  0  0
  9 10  1  0  0  0
 10 11  1  0  0  0
 11 12  1  0  0  0
 11 33  1  0  0  0
 11 34  1  0  0  0
 12 13  1  0  0  0
 12 35  1  0  0  0
 12 36  1  0  0  0
 13 14  1  0  0  0
 13 37  1  0  0  0
 14 15  2  0  0  0
 14 16  1  0  0  0
 16 26  1  0  0  0
 16 17  2  0  0  0
 17 18  1  0  0  0
 17 38  1  0  0  0
 18 19  2  0  0  0
 18 20  1  0  0  0
 20 21  1  0  0  0
 20 39  1  0  0  0
 21 26  2  0  0  0
 21 22  1  0  0  0
 22 23  2  0  0  0
 22 40  1  0  0  0
 23 24  1  0  0  0
 23 41  1  0  0  0
 24 25  2  0  0  0
 24 42  1  0  0  0
 25 26  1  0  0  0
 25 43  1  0  0  0
M  END
> <r_i_docking_score>
-6.61538077056851

$$$$
ligprep_5.maegz:401
                    3D
 Schrodinger Suite 2020-4.
 39 41  0  0  1  0            999 V2000
    5.5700    3.0772   21.2966 C   0  0  0  0  0  0
    5.8828    1.9429   20.3273 C   0  0  0  0  0  0
    5.0865    1.7905   19.1889 C   0  0  0  0  0  0
    5.3668    0.7480   18.3080 C   0  0  0  0  0  0
    6.3671   -0.1400   18.5048 N   0  0  0  0  0  0
    7.1458    0.0222   19.6003 C   0  0  0  0  0  0
    6.9451    1.0444   20.5440 C   0  0  0  0  0  0
    7.7830    1.2346   21.6557 N   0  0  0  0  0  0
    8.5199    0.3135   22.3098 C   0  0  0  0  0  0
    8.5616   -0.8848   22.0320 O   0  0  0  0  0  0
    9.3499    0.8353   23.4853 C   0  0  0  0  0  0
   10.8153    1.0118   23.1033 C   0  0  0  0  0  0
   11.6305   -0.1049   22.8997 C   0  0  0  0  0  0
   12.9751    0.0630   22.5792 C   0  0  0  0  0  0
   13.9620   -1.3178   22.3030 Cl  0  0  0  0  0  0
   13.5211    1.3402   22.4821 C   0  0  0  0  0  0
   12.7161    2.4647   22.6771 C   0  0  0  0  0  0
   13.3298    3.8575   22.6363 C   0  0  0  0  0  0
   12.9972    4.8487   21.5124 C   0  0  0  0  0  0
   12.2360    5.7045   22.4596 O   0  0  0  0  0  0
   12.8107    4.9428   23.5959 C   0  0  0  0  0  0
   11.3555    2.2919   22.9577 C   0  0  0  0  0  0
    6.3701    3.8170   21.2956 H   0  0  0  0  0  0
    4.6373    3.5832   21.0427 H   0  0  0  0  0  0
    5.4676    2.6915   22.3108 H   0  0  0  0  0  0
    4.2752    2.4747   18.9783 H   0  0  0  0  0  0
    4.7700    0.6085   17.4206 H   0  0  0  0  0  0
    7.9524   -0.6897   19.6872 H   0  0  0  0  0  0
    7.7735    2.1679   22.0360 H   0  0  0  0  0  0
    8.9387    1.7775   23.8517 H   0  0  0  0  0  0
    9.2725    0.1297   24.3138 H   0  0  0  0  0  0
   11.2183   -1.1001   22.9859 H   0  0  0  0  0  0
   14.5680    1.4613   22.2451 H   0  0  0  0  0  0
   14.4149    3.8070   22.7053 H   0  0  0  0  0  0
   13.8324    5.4360   21.1215 H   0  0  0  0  0  0
   12.3692    4.4658   20.7134 H   0  0  0  0  0  0
   12.0093    4.6545   24.2787 H   0  0  0  0  0  0
   13.5672    5.5473   24.0880 H   0  0  0  0  0  0
   10.7219    3.1580   23.0916 H   0  0  0  0  0  0
  1  2  1  0  0  0
  1 23  1  0  0  0
  1 24  1  0  0  0
  1 25  1  0  0  0
  2  7  2  0  0  0
  2  3  1  0  0  0
  3  4  2  0  0  0
  3 26  1  0  0  0
  4  5  1  0  0  0
  4 27  1  0  0  0
  5  6  2  0  0  0
  6  7  1  0  0  0
  6 28  1  0  0  0
  7  8  1  0  0  0
  8  9  1  0  0  0
  8 29  1  0  0  0
  9 10  2  0  0  0
  9 11  1  0  0  0
 11 12  1  0  0  0
 11 30  1  0  0  0
 11 31  1  0  0  0
 12 22  2  0  0  0
 12 13  1  0  0  0
 13 14  2  0  0  0
 13 32  1  0  0  0
 14 15  1  0  0  0
 14 16  1  0  0  0
 16 17  2  0  0  0
 16 33  1  0  0  0
 17 18  1  0  0  0
 17 22  1  0  0  0
 18 21  1  0  0  0
 18 19  1  0  0  0
 18 34  1  0  0  0
 19 20  1  0  0  0
 19 35  1  0  0  0
 19 36  1  0  0  0
 20 21  1  0  0  0
 21 37  1  0  0  0
 21 38  1  0  0  0
 22 39  1  0  0  0
M  END
> <r_i_docking_score>
-6.32769085327496

$$$$
ligprep_5.maegz:402
                    3D
 Schrodinger Suite 2020-4.
 40 42  0  0  1  0            999 V2000
    6.9663   -0.3889   18.8366 C   0  0  0  0  0  0
    6.0528    0.6853   19.4152 C   0  0  0  0  0  0
    5.1782    1.3738   18.5660 C   0  0  0  0  0  0
    4.3262    2.3382   19.1080 C   0  0  0  0  0  0
    4.2729    2.6152   20.4330 N   0  0  0  0  0  0
    5.1239    1.9484   21.2504 C   0  0  0  0  0  0
    6.0290    0.9895   20.7913 C   0  0  0  0  0  0
    6.8711    0.3776   21.7262 N   0  0  0  0  0  0
    8.1962    0.6084   21.7906 C   0  0  0  0  0  0
    8.7701    1.4192   21.0604 O   0  0  0  0  0  0
    8.9651   -0.1527   22.8853 C   0  0  0  0  0  0
   10.4867   -0.0462   22.7506 C   0  0  0  0  0  0
   11.2554   -1.1756   22.4598 C   0  0  0  0  0  0
   12.6356   -1.0601   22.3079 C   0  0  0  0  0  0
   13.5692   -2.4518   21.9075 Cl  0  0  0  0  0  0
   13.2554    0.1827   22.4530 C   0  0  0  0  0  0
   12.5010    1.3290   22.7171 C   0  0  0  0  0  0
   13.1695    2.5341   22.7584 O   0  0  0  0  0  0
   12.4543    3.7441   22.4902 C   0  0  0  0  0  0
   11.6125    4.2938   23.6505 C   0  0  0  0  0  0
   12.5790    5.4085   23.8565 O   0  0  0  0  0  0
   13.3804    4.9504   22.6836 C   0  0  0  0  0  0
   11.1154    1.1959   22.8834 C   0  0  0  0  0  0
    7.9696    0.0022   18.6482 H   0  0  0  0  0  0
    7.0491   -1.2372   19.5187 H   0  0  0  0  0  0
    6.5601   -0.7909   17.9081 H   0  0  0  0  0  0
    5.1711    1.1849   17.5037 H   0  0  0  0  0  0
    3.6631    2.9056   18.4710 H   0  0  0  0  0  0
    5.0632    2.2025   22.2993 H   0  0  0  0  0  0
    6.4270   -0.1371   22.4714 H   0  0  0  0  0  0
    8.6808    0.2541   23.8571 H   0  0  0  0  0  0
    8.6555   -1.1996   22.8797 H   0  0  0  0  0  0
   10.7888   -2.1425   22.3330 H   0  0  0  0  0  0
   14.3229    0.2728   22.3149 H   0  0  0  0  0  0
   11.9696    3.6478   21.5160 H   0  0  0  0  0  0
   10.6439    4.7160   23.3730 H   0  0  0  0  0  0
   11.5697    3.6864   24.5554 H   0  0  0  0  0  0
   14.3933    4.7279   23.0269 H   0  0  0  0  0  0
   13.3391    5.7138   21.9057 H   0  0  0  0  0  0
   10.4975    2.0570   23.0809 H   0  0  0  0  0  0
  1  2  1  0  0  0
  1 24  1  0  0  0
  1 25  1  0  0  0
  1 26  1  0  0  0
  2  7  2  0  0  0
  2  3  1  0  0  0
  3  4  2  0  0  0
  3 27  1  0  0  0
  4  5  1  0  0  0
  4 28  1  0  0  0
  5  6  2  0  0  0
  6  7  1  0  0  0
  6 29  1  0  0  0
  7  8  1  0  0  0
  8  9  1  0  0  0
  8 30  1  0  0  0
  9 10  2  0  0  0
  9 11  1  0  0  0
 11 12  1  0  0  0
 11 31  1  0  0  0
 11 32  1  0  0  0
 12 23  2  0  0  0
 12 13  1  0  0  0
 13 14  2  0  0  0
 13 33  1  0  0  0
 14 15  1  0  0  0
 14 16  1  0  0  0
 16 17  2  0  0  0
 16 34  1  0  0  0
 17 18  1  0  0  0
 17 23  1  0  0  0
 18 19  1  0  0  0
 19 22  1  0  0  0
 19 20  1  0  0  0
 19 35  1  0  0  0
 20 21  1  0  0  0
 20 36  1  0  0  0
 20 37  1  0  0  0
 21 22  1  0  0  0
 22 38  1  0  0  0
 22 39  1  0  0  0
 23 40  1  0  0  0
M  END
> <r_i_docking_score>
-6.53435268788255

$$$$
ligprep_5.maegz:403
                    3D
 Schrodinger Suite 2020-4.
 39 40  0  0  1  0            999 V2000
    6.6641   -0.0947   19.0363 C   0  0  0  0  0  0
    5.7369    0.9906   19.5750 C   0  0  0  0  0  0
    4.7940    1.5468   18.7084 C   0  0  0  0  0  0
    3.8770    2.4756   19.1988 C   0  0  0  0  0  0
    3.8380    2.8600   20.4963 N   0  0  0  0  0  0
    4.7750    2.3467   21.3294 C   0  0  0  0  0  0
    5.7448    1.4246   20.9186 C   0  0  0  0  0  0
    6.6492    0.9773   21.8887 N   0  0  0  0  0  0
    7.9865    1.0910   21.7966 C   0  0  0  0  0  0
    8.5685    1.5469   20.8111 O   0  0  0  0  0  0
    8.7800    0.6236   23.0271 C   0  0  0  0  0  0
   10.1987    1.1795   23.0531 C   0  0  0  0  0  0
   11.2845    0.3473   22.7656 C   0  0  0  0  0  0
   12.5707    0.8777   22.7077 C   0  0  0  0  0  0
   13.9075   -0.1389   22.3120 Cl  0  0  0  0  0  0
   12.7723    2.2366   22.9391 C   0  0  0  0  0  0
   11.7042    3.0789   23.2528 C   0  0  0  0  0  0
   11.9957    4.4280   23.5069 N   0  0  0  0  0  0
   10.8789    5.6303   24.1783 S   0  0  0  0  0  0
    9.9081    6.1701   22.6753 C   0  0  0  0  0  0
    9.9682    4.9607   25.1081 O   0  0  0  0  0  0
   11.7180    6.7469   24.6212 O   0  0  0  0  0  0
   10.4133    2.5417   23.2983 C   0  0  0  0  0  0
    6.8849   -0.8393   19.8013 H   0  0  0  0  0  0
    6.2014   -0.6365   18.2077 H   0  0  0  0  0  0
    7.6003    0.3383   18.6824 H   0  0  0  0  0  0
    4.7701    1.2593   17.6671 H   0  0  0  0  0  0
    3.1577    2.9364   18.5388 H   0  0  0  0  0  0
    4.7360    2.6961   22.3500 H   0  0  0  0  0  0
    6.2482    0.7026   22.7712 H   0  0  0  0  0  0
    8.2645    0.9187   23.9423 H   0  0  0  0  0  0
    8.8036   -0.4667   23.0114 H   0  0  0  0  0  0
   11.1314   -0.7013   22.5576 H   0  0  0  0  0  0
   13.7742    2.6357   22.8748 H   0  0  0  0  0  0
   12.9473    4.7350   23.3801 H   0  0  0  0  0  0
    9.2825    7.0204   22.9408 H   0  0  0  0  0  0
   10.6258    6.4414   21.9082 H   0  0  0  0  0  0
    9.2947    5.3427   22.3184 H   0  0  0  0  0  0
    9.5612    3.1722   23.4996 H   0  0  0  0  0  0
  1  2  1  0  0  0
  1 24  1  0  0  0
  1 25  1  0  0  0
  1 26  1  0  0  0
  2  7  2  0  0  0
  2  3  1  0  0  0
  3  4  2  0  0  0
  3 27  1  0  0  0
  4  5  1  0  0  0
  4 28  1  0  0  0
  5  6  2  0  0  0
  6  7  1  0  0  0
  6 29  1  0  0  0
  7  8  1  0  0  0
  8  9  1  0  0  0
  8 30  1  0  0  0
  9 10  2  0  0  0
  9 11  1  0  0  0
 11 12  1  0  0  0
 11 31  1  0  0  0
 11 32  1  0  0  0
 12 23  2  0  0  0
 12 13  1  0  0  0
 13 14  2  0  0  0
 13 33  1  0  0  0
 14 15  1  0  0  0
 14 16  1  0  0  0
 16 17  2  0  0  0
 16 34  1  0  0  0
 17 18  1  0  0  0
 17 23  1  0  0  0
 18 19  1  0  0  0
 18 35  1  0  0  0
 19 20  1  0  0  0
 19 21  2  0  0  0
 19 22  2  0  0  0
 20 36  1  0  0  0
 20 37  1  0  0  0
 20 38  1  0  0  0
 23 39  1  0  0  0
M  END
> <r_i_docking_score>
-6.15218877513905

$$$$
ligprep_5.maegz:404
                    3D
 Schrodinger Suite 2020-4.
 38 39  0  0  1  0            999 V2000
    6.9158   -0.4305   18.7929 C   0  0  0  0  0  0
    6.0390    0.6593   19.3947 C   0  0  0  0  0  0
    5.1788    1.3730   18.5560 C   0  0  0  0  0  0
    4.3474    2.3471   19.1085 C   0  0  0  0  0  0
    4.3235    2.6352   20.4328 N   0  0  0  0  0  0
    5.1685    1.9500   21.2411 C   0  0  0  0  0  0
    6.0339    0.9570   20.7731 C   0  0  0  0  0  0
    6.8555    0.3009   21.6976 N   0  0  0  0  0  0
    8.1898    0.4660   21.7443 C   0  0  0  0  0  0
    8.7851    1.2780   21.0319 O   0  0  0  0  0  0
    8.9466   -0.3903   22.7788 C   0  0  0  0  0  0
   10.4653   -0.2590   22.6698 C   0  0  0  0  0  0
   11.2478   -1.3149   22.1969 C   0  0  0  0  0  0
   12.6215   -1.1448   22.0251 C   0  0  0  0  0  0
   13.5700   -2.4504   21.4213 Cl  0  0  0  0  0  0
   13.2172    0.0884   22.3081 C   0  0  0  0  0  0
   12.4424    1.1531   22.7758 C   0  0  0  0  0  0
   13.0447    2.3724   23.1079 N   0  0  0  0  0  0
   12.5393    3.9469   22.4721 S   0  0  0  0  0  0
   10.8278    4.0584   22.7080 N   0  0  0  0  0  0
   13.1697    4.9548   23.3264 O   0  0  0  0  0  0
   12.7696    3.9322   21.0304 O   0  0  0  0  0  0
   11.0783    0.9537   22.9923 C   0  0  0  0  0  0
    7.8925   -0.0322   18.5157 H   0  0  0  0  0  0
    7.0587   -1.2516   19.4946 H   0  0  0  0  0  0
    6.4487   -0.8649   17.9083 H   0  0  0  0  0  0
    5.1645    1.1886   17.4918 H   0  0  0  0  0  0
    3.6961    2.9364   18.4774 H   0  0  0  0  0  0
    5.1285    2.2062   22.2892 H   0  0  0  0  0  0
    6.3977   -0.2241   22.4269 H   0  0  0  0  0  0
    8.6399   -0.0845   23.7796 H   0  0  0  0  0  0
    8.6503   -1.4332   22.6565 H   0  0  0  0  0  0
   10.7927   -2.2600   21.9344 H   0  0  0  0  0  0
   14.2774    0.2193   22.1540 H   0  0  0  0  0  0
   14.0267    2.3472   23.3506 H   0  0  0  0  0  0
   10.5664    4.8493   23.2981 H   0  0  0  0  0  0
   10.3529    4.0925   21.7888 H   0  0  0  0  0  0
   10.4662    1.7427   23.3974 H   0  0  0  0  0  0
  1  2  1  0  0  0
  1 24  1  0  0  0
  1 25  1  0  0  0
  1 26  1  0  0  0
  2  7  2  0  0  0
  2  3  1  0  0  0
  3  4  2  0  0  0
  3 27  1  0  0  0
  4  5  1  0  0  0
  4 28  1  0  0  0
  5  6  2  0  0  0
  6  7  1  0  0  0
  6 29  1  0  0  0
  7  8  1  0  0  0
  8  9  1  0  0  0
  8 30  1  0  0  0
  9 10  2  0  0  0
  9 11  1  0  0  0
 11 12  1  0  0  0
 11 31  1  0  0  0
 11 32  1  0  0  0
 12 23  2  0  0  0
 12 13  1  0  0  0
 13 14  2  0  0  0
 13 33  1  0  0  0
 14 15  1  0  0  0
 14 16  1  0  0  0
 16 17  2  0  0  0
 16 34  1  0  0  0
 17 18  1  0  0  0
 17 23  1  0  0  0
 18 19  1  0  0  0
 18 35  1  0  0  0
 19 20  1  0  0  0
 19 21  2  0  0  0
 19 22  2  0  0  0
 20 36  1  0  0  0
 20 37  1  0  0  0
 23 38  1  0  0  0
M  END
> <r_i_docking_score>
-7.63953958398719

$$$$
ligprep_5.maegz:405
                    3D
 Schrodinger Suite 2020-4.
 47 50  0  0  1  0            999 V2000
    8.9096    6.4587   22.7085 C   0  0  0  0  0  0
    8.0576    5.4812   23.4120 N   0  0  0  0  0  0
    7.1397    4.7049   22.5505 C   0  0  0  0  0  0
    8.7990    4.6111   24.7711 S   0  0  0  0  0  0
    9.6642    5.5502   25.4985 O   0  0  0  0  0  0
    7.7329    3.8810   25.4693 O   0  0  0  0  0  0
    9.8642    3.3858   24.0122 C   0  0  0  0  0  0
   11.1831    3.6983   23.6756 C   0  0  0  0  0  0
   11.9991    2.7292   23.0909 C   0  0  0  0  0  0
   11.4962    1.4552   22.8223 C   0  0  0  0  0  0
   10.1640    1.1376   23.1224 C   0  0  0  0  0  0
    9.6141   -0.2261   22.7770 C   0  0  0  0  0  0
   10.3541   -1.2113   22.7220 O   0  0  0  0  0  0
    8.2970   -0.2370   22.4968 N   0  0  0  0  0  0
    7.5382   -1.3306   22.1193 C   0  0  0  0  0  0
    6.5110   -1.3567   21.1786 C   0  0  0  0  0  0
    6.0418   -0.2121   20.3458 C   0  0  0  0  0  0
    5.6704    0.9902   20.9549 C   0  0  0  0  0  0
    5.2229    2.0581   20.1832 C   0  0  0  0  0  0
    5.1693    1.9286   18.7985 C   0  0  0  0  0  0
    5.5687    0.7468   18.1818 C   0  0  0  0  0  0
    5.9965   -0.3299   18.9546 C   0  0  0  0  0  0
    5.9697   -2.5575   21.0672 N   0  0  0  0  0  0
    6.6125   -3.3099   21.9316 C   0  0  0  0  0  0
    6.5374   -4.9920   22.4282 S   0  0  0  0  0  0
    7.8102   -4.6858   23.6030 C   0  0  0  0  0  0
    8.2672   -3.3826   23.5711 C   0  0  0  0  0  0
    7.5909   -2.6241   22.6275 N   0  0  0  0  0  0
    9.3595    2.1155   23.7312 C   0  0  0  0  0  0
    8.2946    7.1078   22.0820 H   0  0  0  0  0  0
    9.6443    5.9469   22.0872 H   0  0  0  0  0  0
    9.4463    7.0739   23.4305 H   0  0  0  0  0  0
    6.5276    5.3769   21.9454 H   0  0  0  0  0  0
    7.7122    4.0423   21.9007 H   0  0  0  0  0  0
    6.4773    4.0946   23.1690 H   0  0  0  0  0  0
   11.5806    4.6817   23.8762 H   0  0  0  0  0  0
   13.0240    2.9657   22.8413 H   0  0  0  0  0  0
   12.1441    0.7236   22.3581 H   0  0  0  0  0  0
    7.8669    0.6627   22.3395 H   0  0  0  0  0  0
    5.6920    1.0881   22.0292 H   0  0  0  0  0  0
    4.9188    2.9864   20.6459 H   0  0  0  0  0  0
    4.8220    2.7554   18.1944 H   0  0  0  0  0  0
    5.5352    0.6616   17.1080 H   0  0  0  0  0  0
    6.3014   -1.2464   18.4715 H   0  0  0  0  0  0
    8.1625   -5.4903   24.2344 H   0  0  0  0  0  0
    9.0512   -2.9370   24.1653 H   0  0  0  0  0  0
    8.3334    1.8976   23.9970 H   0  0  0  0  0  0
  1  2  1  0  0  0
  1 30  1  0  0  0
  1 31  1  0  0  0
  1 32  1  0  0  0
  2  3  1  0  0  0
  2  4  1  0  0  0
  3 33  1  0  0  0
  3 34  1  0  0  0
  3 35  1  0  0  0
  4  5  2  0  0  0
  4  6  2  0  0  0
  4  7  1  0  0  0
  7 29  2  0  0  0
  7  8  1  0  0  0
  8  9  2  0  0  0
  8 36  1  0  0  0
  9 10  1  0  0  0
  9 37  1  0  0  0
 10 11  2  0  0  0
 10 38  1  0  0  0
 11 12  1  0  0  0
 11 29  1  0  0  0
 12 13  2  0  0  0
 12 14  1  0  0  0
 14 15  1  0  0  0
 14 39  1  0  0  0
 15 28  1  0  0  0
 15 16  2  0  0  0
 16 17  1  0  0  0
 16 23  1  0  0  0
 17 22  2  0  0  0
 17 18  1  0  0  0
 18 19  2  0  0  0
 18 40  1  0  0  0
 19 20  1  0  0  0
 19 41  1  0  0  0
 20 21  2  0  0  0
 20 42  1  0  0  0
 21 22  1  0  0  0
 21 43  1  0  0  0
 22 44  1  0  0  0
 23 24  2  0  0  0
 24 28  1  0  0  0
 24 25  1  0  0  0
 25 26  1  0  0  0
 26 27  2  0  0  0
 26 45  1  0  0  0
 27 28  1  0  0  0
 27 46  1  0  0  0
 29 47  1  0  0  0
M  END
> <r_i_docking_score>
-5.52112205928081

$$$$
ligprep_5.maegz:406
                    3D
 Schrodinger Suite 2020-4.
 36 38  0  0  1  0            999 V2000
    7.7396   -1.3580   21.9747 C   0  0  0  0  0  0
    7.5778   -2.3466   23.1182 C   0  0  0  0  0  0
    6.7568   -3.4839   23.1095 C   0  0  0  0  0  0
    6.0043   -4.0025   21.9616 C   0  0  0  0  0  0
    5.5699   -3.2676   21.0768 O   0  0  0  0  0  0
    5.7783   -5.5099   21.8036 C   0  0  0  0  0  0
    7.2168   -6.4524   22.2782 Cl  0  0  0  0  0  0
    6.8117   -4.0744   24.4055 C   0  0  0  0  0  0
    6.1753   -5.1640   25.0429 C   0  0  0  0  0  0
    6.5386   -5.5339   26.3341 C   0  0  0  0  0  0
    7.5106   -4.8280   27.0236 C   0  0  0  0  0  0
    8.1095   -3.7212   26.4353 C   0  0  0  0  0  0
    7.7636   -3.3413   25.1559 N   0  0  0  0  0  0
    8.2094   -2.2879   24.3717 C   0  0  0  0  0  0
    9.1686   -1.2976   24.8780 C   0  0  0  0  0  0
    8.9683   -0.7910   25.9830 O   0  0  0  0  0  0
   10.3312   -0.8723   24.0295 C   0  0  0  0  0  0
   10.9514    0.3574   24.2882 C   0  0  0  0  0  0
   12.0711    0.7475   23.5594 C   0  0  0  0  0  0
   12.5913   -0.0999   22.5865 C   0  0  0  0  0  0
   13.7027    0.2668   21.9082 F   0  0  0  0  0  0
   11.9881   -1.3255   22.3173 C   0  0  0  0  0  0
   10.8595   -1.7134   23.0354 C   0  0  0  0  0  0
    6.7707   -0.9724   21.6550 H   0  0  0  0  0  0
    8.3493   -0.4888   22.2172 H   0  0  0  0  0  0
    8.1663   -1.8413   21.0955 H   0  0  0  0  0  0
    4.9289   -5.8483   22.3968 H   0  0  0  0  0  0
    5.5691   -5.7401   20.7615 H   0  0  0  0  0  0
    5.4252   -5.7415   24.5298 H   0  0  0  0  0  0
    6.0697   -6.3901   26.8027 H   0  0  0  0  0  0
    7.7991   -5.1492   28.0138 H   0  0  0  0  0  0
    8.8597   -3.1343   26.9428 H   0  0  0  0  0  0
   10.5666    1.0159   25.0537 H   0  0  0  0  0  0
   12.5487    1.6975   23.7572 H   0  0  0  0  0  0
   12.3966   -1.9773   21.5579 H   0  0  0  0  0  0
   10.4185   -2.6787   22.8253 H   0  0  0  0  0  0
  1  2  1  0  0  0
  1 24  1  0  0  0
  1 25  1  0  0  0
  1 26  1  0  0  0
  2 14  2  0  0  0
  2  3  1  0  0  0
  3  4  1  0  0  0
  3  8  2  0  0  0
  4  5  2  0  0  0
  4  6  1  0  0  0
  6  7  1  0  0  0
  6 27  1  0  0  0
  6 28  1  0  0  0
  8 13  1  0  0  0
  8  9  1  0  0  0
  9 10  2  0  0  0
  9 29  1  0  0  0
 10 11  1  0  0  0
 10 30  1  0  0  0
 11 12  2  0  0  0
 11 31  1  0  0  0
 12 13  1  0  0  0
 12 32  1  0  0  0
 13 14  1  0  0  0
 14 15  1  0  0  0
 15 16  2  0  0  0
 15 17  1  0  0  0
 17 23  2  0  0  0
 17 18  1  0  0  0
 18 19  2  0  0  0
 18 33  1  0  0  0
 19 20  1  0  0  0
 19 34  1  0  0  0
 20 21  1  0  0  0
 20 22  2  0  0  0
 22 23  1  0  0  0
 22 35  1  0  0  0
 23 36  1  0  0  0
M  END
> <r_i_docking_score>
-7.0210012992475

$$$$
ligprep_5.maegz:407
                    3D
 Schrodinger Suite 2020-4.
 40 42  0  0  1  0            999 V2000
    8.1091   -2.9840   26.6291 C   0  0  0  0  0  0
    7.5661   -3.1361   25.2216 C   0  0  0  0  0  0
    7.1691   -4.2719   24.5402 C   0  0  0  0  0  0
    6.7259   -3.9203   23.2572 C   0  0  0  0  0  0
    6.1864   -4.8364   22.2444 C   0  0  0  0  0  0
    5.8779   -4.4769   21.1069 O   0  0  0  0  0  0
    5.9757   -6.3036   22.6169 C   0  0  0  0  0  0
    4.7456   -6.4546   23.9077 Cl  0  0  0  0  0  0
    6.9028   -2.5382   23.1427 C   0  0  0  0  0  0
    6.6413   -1.6053   21.9710 C   0  0  0  0  0  0
    7.3753   -2.0689   24.3643 N   0  0  0  0  0  0
    7.6662   -0.6690   24.6892 C   0  0  0  0  0  0
    9.1693   -0.3439   24.5383 C   0  0  2  0  0  0
    9.4277    1.1794   24.3801 C   0  0  0  0  0  0
   10.8310    1.4535   24.3197 O   0  0  0  0  0  0
   11.5285    0.5985   23.4911 C   0  0  0  0  0  0
   12.8047    0.9830   23.0974 C   0  0  0  0  0  0
   13.5695    0.1238   22.3079 C   0  0  0  0  0  0
   13.0654   -1.1214   21.9168 C   0  0  0  0  0  0
   11.7831   -1.5063   22.3078 C   0  0  0  0  0  0
   11.0174   -0.6492   23.0983 C   0  0  0  0  0  0
    9.7355   -1.0419   23.4200 O   0  0  0  0  0  0
    8.0990   -3.9291   27.1743 H   0  0  0  0  0  0
    9.1403   -2.6360   26.6297 H   0  0  0  0  0  0
    7.5262   -2.2703   27.2084 H   0  0  0  0  0  0
    7.1882   -5.2692   24.9563 H   0  0  0  0  0  0
    6.9058   -6.7537   22.9608 H   0  0  0  0  0  0
    5.6194   -6.8530   21.7466 H   0  0  0  0  0  0
    5.6191   -1.2212   21.9786 H   0  0  0  0  0  0
    7.3140   -0.7450   21.9426 H   0  0  0  0  0  0
    6.7815   -2.1009   21.0109 H   0  0  0  0  0  0
    7.0562   -0.0256   24.0558 H   0  0  0  0  0  0
    7.3264   -0.4717   25.7077 H   0  0  0  0  0  0
    9.6938   -0.6809   25.4348 H   0  0  0  0  0  0
    8.9539    1.5337   23.4610 H   0  0  0  0  0  0
    9.0022    1.7324   25.2173 H   0  0  0  0  0  0
   13.2007    1.9404   23.4039 H   0  0  0  0  0  0
   14.5501    0.4416   21.9904 H   0  0  0  0  0  0
   13.6582   -1.7758   21.2939 H   0  0  0  0  0  0
   11.3766   -2.4539   21.9879 H   0  0  0  0  0  0
  1  2  1  0  0  0
  1 23  1  0  0  0
  1 24  1  0  0  0
  1 25  1  0  0  0
  2 11  1  0  0  0
  2  3  2  0  0  0
  3  4  1  0  0  0
  3 26  1  0  0  0
  4  5  1  0  0  0
  4  9  2  0  0  0
  5  6  2  0  0  0
  5  7  1  0  0  0
  7  8  1  0  0  0
  7 27  1  0  0  0
  7 28  1  0  0  0
  9 10  1  0  0  0
  9 11  1  0  0  0
 10 29  1  0  0  0
 10 30  1  0  0  0
 10 31  1  0  0  0
 11 12  1  0  0  0
 12 13  1  0  0  0
 12 32  1  0  0  0
 12 33  1  0  0  0
 13 22  1  0  0  0
 13 14  1  0  0  0
 13 34  1  0  0  0
 14 15  1  0  0  0
 14 35  1  0  0  0
 14 36  1  0  0  0
 15 16  1  0  0  0
 16 21  2  0  0  0
 16 17  1  0  0  0
 17 18  2  0  0  0
 17 37  1  0  0  0
 18 19  1  0  0  0
 18 38  1  0  0  0
 19 20  2  0  0  0
 19 39  1  0  0  0
 20 21  1  0  0  0
 20 40  1  0  0  0
 21 22  1  0  0  0
M  END
> <r_i_docking_score>
-6.3252462075519

$$$$
ligprep_5.maegz:408
                    3D
 Schrodinger Suite 2020-4.
 40 42  0  0  1  0            999 V2000
   12.7544   -2.1968   22.2569 C   0  0  0  0  0  0
   12.2957   -0.8203   22.6890 C   0  0  0  0  0  0
   12.8464    0.4276   22.4632 C   0  0  0  0  0  0
   12.0305    1.4089   23.0435 C   0  0  0  0  0  0
   12.2486    2.8570   22.9967 C   0  0  0  0  0  0
   11.5644    3.6414   23.6580 O   0  0  0  0  0  0
   13.3746    3.3843   22.0941 C   0  0  0  0  0  0
   13.5682    5.1577   22.1991 Cl  0  0  0  0  0  0
   10.9856    0.7293   23.6787 C   0  0  0  0  0  0
    9.8142    1.2534   24.4986 C   0  0  0  0  0  0
   11.1635   -0.6277   23.4520 N   0  0  0  0  0  0
   10.3890   -1.6404   23.9763 N   0  0  0  0  0  0
    9.2623   -2.1215   23.4083 C   0  0  0  0  0  0
    8.8927   -1.7398   22.2970 O   0  0  0  0  0  0
    8.5096   -3.1205   24.2231 C   0  0  0  0  0  0
    8.7697   -3.1581   25.4884 N   0  0  0  0  0  0
    8.0624   -4.0008   26.3194 N   0  0  0  0  0  0
    7.0267   -4.8250   26.0198 C   0  0  0  0  0  0
    6.4473   -5.4759   26.8879 O   0  0  0  0  0  0
    6.7222   -4.8203   24.5300 C   0  0  0  0  0  0
    5.6971   -5.6528   24.0668 C   0  0  0  0  0  0
    5.4229   -5.7342   22.7042 C   0  0  0  0  0  0
    6.1672   -4.9843   21.8000 C   0  0  0  0  0  0
    7.1696   -4.1293   22.2563 C   0  0  0  0  0  0
    7.4600   -4.0121   23.6268 C   0  0  0  0  0  0
   13.7536   -2.1857   21.8198 H   0  0  0  0  0  0
   12.7734   -2.8991   23.0946 H   0  0  0  0  0  0
   12.0823   -2.6167   21.5082 H   0  0  0  0  0  0
   13.7566    0.6068   21.9069 H   0  0  0  0  0  0
   13.1621    3.1390   21.0550 H   0  0  0  0  0  0
   14.3275    2.9275   22.3574 H   0  0  0  0  0  0
    9.4092    2.1773   24.0793 H   0  0  0  0  0  0
    8.9713    0.5616   24.5531 H   0  0  0  0  0  0
   10.1138    1.4751   25.5241 H   0  0  0  0  0  0
   10.6544   -1.9977   24.8797 H   0  0  0  0  0  0
    8.3413   -3.9678   27.2888 H   0  0  0  0  0  0
    5.1297   -6.2615   24.7550 H   0  0  0  0  0  0
    4.6479   -6.3963   22.3468 H   0  0  0  0  0  0
    5.9720   -5.0651   20.7414 H   0  0  0  0  0  0
    7.7159   -3.5809   21.5080 H   0  0  0  0  0  0
  1  2  1  0  0  0
  1 26  1  0  0  0
  1 27  1  0  0  0
  1 28  1  0  0  0
  2 11  1  0  0  0
  2  3  2  0  0  0
  3  4  1  0  0  0
  3 29  1  0  0  0
  4  5  1  0  0  0
  4  9  2  0  0  0
  5  6  2  0  0  0
  5  7  1  0  0  0
  7  8  1  0  0  0
  7 30  1  0  0  0
  7 31  1  0  0  0
  9 10  1  0  0  0
  9 11  1  0  0  0
 10 32  1  0  0  0
 10 33  1  0  0  0
 10 34  1  0  0  0
 11 12  1  0  0  0
 12 13  1  0  0  0
 12 35  1  0  0  0
 13 14  2  0  0  0
 13 15  1  0  0  0
 15 25  1  0  0  0
 15 16  2  0  0  0
 16 17  1  0  0  0
 17 18  1  0  0  0
 17 36  1  0  0  0
 18 19  2  0  0  0
 18 20  1  0  0  0
 20 25  2  0  0  0
 20 21  1  0  0  0
 21 22  2  0  0  0
 21 37  1  0  0  0
 22 23  1  0  0  0
 22 38  1  0  0  0
 23 24  2  0  0  0
 23 39  1  0  0  0
 24 25  1  0  0  0
 24 40  1  0  0  0
M  END
> <r_i_docking_score>
-6.75204895187698

$$$$
ligprep_5.maegz:409
                    3D
 Schrodinger Suite 2020-4.
 36 38  0  0  1  0            999 V2000
    7.3187   -0.3593   19.0915 C   0  0  0  0  0  0
    6.2905    0.6463   19.5873 C   0  0  0  0  0  0
    5.3633    1.1475   18.6667 C   0  0  0  0  0  0
    4.3801    2.0346   19.1077 C   0  0  0  0  0  0
    4.2625    2.4263   20.3971 N   0  0  0  0  0  0
    5.1699    1.9492   21.2815 C   0  0  0  0  0  0
    6.2015    1.0745   20.9293 C   0  0  0  0  0  0
    7.0630    0.6765   21.9577 N   0  0  0  0  0  0
    8.3760    0.9733   22.0194 C   0  0  0  0  0  0
    8.9864    1.5397   21.1080 O   0  0  0  0  0  0
    9.0779    0.6454   23.3662 C   0  0  2  0  0  0
    8.8113    1.7862   24.3825 C   0  0  0  0  0  0
    9.6536    3.0339   24.0392 C   0  0  0  0  0  0
   11.0494    2.7296   24.0713 O   0  0  0  0  0  0
   11.4434    1.5749   23.4195 C   0  0  0  0  0  0
   12.7969    1.5071   23.1077 C   0  0  0  0  0  0
   13.3254    0.3465   22.5532 C   0  0  0  0  0  0
   12.5034   -0.7491   22.3080 C   0  0  0  0  0  0
   13.1743   -2.1806   21.6172 Cl  0  0  0  0  0  0
   11.1400   -0.6720   22.5915 C   0  0  0  0  0  0
   10.5856    0.4855   23.1579 C   0  0  0  0  0  0
    7.8648   -0.8542   19.8930 H   0  0  0  0  0  0
    6.8218   -1.1396   18.5137 H   0  0  0  0  0  0
    8.0222    0.1322   18.4209 H   0  0  0  0  0  0
    5.4017    0.8606   17.6253 H   0  0  0  0  0  0
    3.6708    2.4627   18.4142 H   0  0  0  0  0  0
    5.0511    2.2936   22.2977 H   0  0  0  0  0  0
    6.6160    0.3475   22.7993 H   0  0  0  0  0  0
    8.6193   -0.2806   23.7175 H   0  0  0  0  0  0
    7.7543    2.0570   24.4208 H   0  0  0  0  0  0
    9.0856    1.4550   25.3859 H   0  0  0  0  0  0
    9.3881    3.4215   23.0537 H   0  0  0  0  0  0
    9.4557    3.8296   24.7578 H   0  0  0  0  0  0
   13.4418    2.3492   23.3118 H   0  0  0  0  0  0
   14.3720    0.2990   22.3084 H   0  0  0  0  0  0
   10.5049   -1.5135   22.3537 H   0  0  0  0  0  0
  1  2  1  0  0  0
  1 22  1  0  0  0
  1 23  1  0  0  0
  1 24  1  0  0  0
  2  7  2  0  0  0
  2  3  1  0  0  0
  3  4  2  0  0  0
  3 25  1  0  0  0
  4  5  1  0  0  0
  4 26  1  0  0  0
  5  6  2  0  0  0
  6  7  1  0  0  0
  6 27  1  0  0  0
  7  8  1  0  0  0
  8  9  1  0  0  0
  8 28  1  0  0  0
  9 10  2  0  0  0
  9 11  1  0  0  0
 11 21  1  0  0  0
 11 12  1  0  0  0
 11 29  1  0  0  0
 12 13  1  0  0  0
 12 30  1  0  0  0
 12 31  1  0  0  0
 13 14  1  0  0  0
 13 32  1  0  0  0
 13 33  1  0  0  0
 14 15  1  0  0  0
 15 21  2  0  0  0
 15 16  1  0  0  0
 16 17  2  0  0  0
 16 34  1  0  0  0
 17 18  1  0  0  0
 17 35  1  0  0  0
 18 19  1  0  0  0
 18 20  2  0  0  0
 20 21  1  0  0  0
 20 36  1  0  0  0
M  END
> <r_i_docking_score>
-6.46764617086995

$$$$
ligprep_5.maegz:410
                    3D
 Schrodinger Suite 2020-4.
 39 42  0  0  1  0            999 V2000
    9.5513    1.9471   21.1080 O   0  0  0  0  0  0
    8.9168    1.7011   22.1337 C   0  0  0  0  0  0
    7.7983    0.9410   22.1337 N   0  0  0  0  0  0
    7.1737    0.4361   20.9994 C   0  0  0  0  0  0
    7.1672    0.9511   19.7884 N   0  0  0  0  0  0
    6.3818    0.1297   18.9835 N   0  0  0  0  0  0
    5.9706   -0.8509   19.7440 C   0  0  0  0  0  0
    6.4567   -0.7421   21.0244 N   0  0  0  0  0  0
    6.2269   -1.6406   22.1467 C   0  0  0  0  0  0
    6.2648   -3.1390   21.9185 C   0  0  0  0  0  0
    7.3940   -2.4624   22.6544 C   0  0  0  0  0  0
    9.4102    2.2443   23.5123 C   0  0  2  0  0  0
    8.2891    3.0458   24.2307 C   0  0  0  0  0  0
    8.0474    4.4258   23.5987 C   0  0  0  0  0  0
    9.5431    5.4772   23.9965 S   0  0  0  0  0  0
    9.6560    5.6081   25.4539 O   0  0  0  0  0  0
    9.5332    6.6979   23.1836 O   0  0  0  0  0  0
   10.8702    4.4130   23.4427 C   0  0  0  0  0  0
   12.0718    5.0524   23.1211 C   0  0  0  0  0  0
   13.1839    4.3163   22.7310 C   0  0  0  0  0  0
   13.1074    2.9298   22.6864 C   0  0  0  0  0  0
   11.9136    2.2886   23.0107 C   0  0  0  0  0  0
   10.7574    3.0019   23.3660 C   0  0  0  0  0  0
    7.4051    0.6649   23.0196 H   0  0  0  0  0  0
    5.3353   -1.6736   19.4562 H   0  0  0  0  0  0
    5.5114   -1.2491   22.8724 H   0  0  0  0  0  0
    5.5773   -3.7713   22.4790 H   0  0  0  0  0  0
    6.4443   -3.5199   20.9120 H   0  0  0  0  0  0
    8.3615   -2.3498   22.1596 H   0  0  0  0  0  0
    7.4948   -2.6083   23.7304 H   0  0  0  0  0  0
    9.5945    1.3271   24.0735 H   0  0  0  0  0  0
    8.5565    3.1773   25.2812 H   0  0  0  0  0  0
    7.3483    2.4922   24.2434 H   0  0  0  0  0  0
    7.1707    4.9273   24.0109 H   0  0  0  0  0  0
    7.9451    4.3785   22.5134 H   0  0  0  0  0  0
   12.1452    6.1282   23.1801 H   0  0  0  0  0  0
   14.1071    4.8185   22.4814 H   0  0  0  0  0  0
   13.9694    2.3510   22.3866 H   0  0  0  0  0  0
   11.8671    1.2129   22.9211 H   0  0  0  0  0  0
  1  2  2  0  0  0
  2  3  1  0  0  0
  2 12  1  0  0  0
  3  4  1  0  0  0
  3 24  1  0  0  0
  4  8  1  0  0  0
  4  5  2  0  0  0
  5  6  1  0  0  0
  6  7  2  0  0  0
  7  8  1  0  0  0
  7 25  1  0  0  0
  8  9  1  0  0  0
  9 11  1  0  0  0
  9 10  1  0  0  0
  9 26  1  0  0  0
 10 11  1  0  0  0
 10 27  1  0  0  0
 10 28  1  0  0  0
 11 29  1  0  0  0
 11 30  1  0  0  0
 12 23  1  0  0  0
 12 13  1  0  0  0
 12 31  1  0  0  0
 13 14  1  0  0  0
 13 32  1  0  0  0
 13 33  1  0  0  0
 14 15  1  0  0  0
 14 34  1  0  0  0
 14 35  1  0  0  0
 15 16  2  0  0  0
 15 17  2  0  0  0
 15 18  1  0  0  0
 18 23  2  0  0  0
 18 19  1  0  0  0
 19 20  2  0  0  0
 19 36  1  0  0  0
 20 21  1  0  0  0
 20 37  1  0  0  0
 21 22  2  0  0  0
 21 38  1  0  0  0
 22 23  1  0  0  0
 22 39  1  0  0  0
M  END
> <r_i_docking_score>
-5.78228122237602

$$$$
ligprep_5.maegz:411
                    3D
 Schrodinger Suite 2020-4.
 34 36  0  0  1  0            999 V2000
    9.0944    1.5691   21.1079 O   0  0  0  0  0  0
    8.8986    0.6869   21.9472 C   0  0  0  0  0  0
    7.5530   -0.0549   21.9968 C   0  0  0  0  0  0
    6.6229    0.3364   20.8489 C   0  0  0  0  0  0
    6.8439   -0.1654   19.5606 C   0  0  0  0  0  0
    6.0337    0.2388   18.5010 C   0  0  0  0  0  0
    5.0026    1.1477   18.7232 C   0  0  0  0  0  0
    4.7712    1.6503   20.0009 C   0  0  0  0  0  0
    3.4653    2.7454   20.2734 Cl  0  0  0  0  0  0
    5.5886    1.2555   21.0594 C   0  0  0  0  0  0
    9.8333    0.3039   22.8423 N   0  0  0  0  0  0
   11.1499    0.7899   22.8121 C   0  0  0  0  0  0
   12.1709   -0.1285   22.5515 C   0  0  0  0  0  0
   13.4539    0.2241   22.3079 N   0  0  0  0  0  0
   13.7423    1.5445   22.3080 C   0  0  0  0  0  0
   12.8329    2.5705   22.6511 C   0  0  0  0  0  0
   13.2047    3.9364   22.7079 C   0  0  0  0  0  0
   12.2767    4.8978   23.0951 C   0  0  0  0  0  0
   10.9739    4.5304   23.4129 C   0  0  0  0  0  0
   10.5728    3.1981   23.3362 C   0  0  0  0  0  0
   11.4904    2.1823   22.9440 C   0  0  0  0  0  0
    7.0752    0.1619   22.9531 H   0  0  0  0  0  0
    7.7327   -1.1302   21.9593 H   0  0  0  0  0  0
    7.6549   -0.8544   19.3744 H   0  0  0  0  0  0
    6.2072   -0.1480   17.5080 H   0  0  0  0  0  0
    4.3697    1.4571   17.9081 H   0  0  0  0  0  0
    5.4070    1.6580   22.0449 H   0  0  0  0  0  0
    9.6626   -0.5394   23.3688 H   0  0  0  0  0  0
   11.9554   -1.1831   22.4519 H   0  0  0  0  0  0
   14.7636    1.8040   22.0698 H   0  0  0  0  0  0
   14.2203    4.2222   22.4737 H   0  0  0  0  0  0
   12.5702    5.9363   23.1504 H   0  0  0  0  0  0
   10.2600    5.2875   23.7033 H   0  0  0  0  0  0
    9.5521    2.9357   23.5710 H   0  0  0  0  0  0
  1  2  2  0  0  0
  2  3  1  0  0  0
  2 11  1  0  0  0
  3  4  1  0  0  0
  3 22  1  0  0  0
  3 23  1  0  0  0
  4 10  2  0  0  0
  4  5  1  0  0  0
  5  6  2  0  0  0
  5 24  1  0  0  0
  6  7  1  0  0  0
  6 25  1  0  0  0
  7  8  2  0  0  0
  7 26  1  0  0  0
  8  9  1  0  0  0
  8 10  1  0  0  0
 10 27  1  0  0  0
 11 12  1  0  0  0
 11 28  1  0  0  0
 12 21  2  0  0  0
 12 13  1  0  0  0
 13 14  2  0  0  0
 13 29  1  0  0  0
 14 15  1  0  0  0
 15 16  2  0  0  0
 15 30  1  0  0  0
 16 21  1  0  0  0
 16 17  1  0  0  0
 17 18  2  0  0  0
 17 31  1  0  0  0
 18 19  1  0  0  0
 18 32  1  0  0  0
 19 20  2  0  0  0
 19 33  1  0  0  0
 20 21  1  0  0  0
 20 34  1  0  0  0
M  END
> <r_i_docking_score>
-7.13782596443121

$$$$
ligprep_5.maegz:412
                    3D
 Schrodinger Suite 2020-4.
 46 49  0  0  1  0            999 V2000
    5.5696   -3.7782   20.7080 O   0  0  0  0  0  0
    6.2150   -4.0096   21.7275 C   0  0  0  0  0  0
    6.1669   -5.4221   22.3287 C   0  0  0  0  0  0
    5.7157   -5.4556   23.7912 C   0  0  0  0  0  0
    4.3727   -5.6960   24.0996 C   0  0  0  0  0  0
    3.8871   -5.7658   25.3602 N   0  0  0  0  0  0
    4.7617   -5.5876   26.3751 C   0  0  0  0  0  0
    6.1410   -5.3296   26.2100 C   0  0  0  0  0  0
    7.0238   -5.1651   27.3044 C   0  0  0  0  0  0
    8.3763   -4.9298   27.0765 C   0  0  0  0  0  0
    8.8769   -4.8540   25.7836 C   0  0  0  0  0  0
    8.0306   -5.0102   24.6904 C   0  0  0  0  0  0
    6.6398   -5.2527   24.8713 C   0  0  0  0  0  0
    7.0284   -3.1180   22.3251 N   0  0  0  0  0  0
    7.3526   -1.8199   21.9043 C   0  0  0  0  0  0
    6.5260   -1.0120   21.1099 C   0  0  0  0  0  0
    6.9571    0.2523   20.7134 C   0  0  0  0  0  0
    5.9447    1.2395   19.7244 Cl  0  0  0  0  0  0
    8.2110    0.7152   21.1080 C   0  0  0  0  0  0
    9.0496   -0.0736   21.8967 C   0  0  0  0  0  0
   10.2937    0.4505   22.1992 O   0  0  0  0  0  0
   11.1664   -0.2330   23.0569 C   0  0  2  0  0  0
   12.3537    0.6689   23.3286 C   0  0  0  0  0  0
   13.4182    0.1099   22.3871 C   0  0  0  0  0  0
   12.9454   -1.2531   21.9080 C   0  0  0  0  0  0
   13.5702   -2.0531   21.2198 O   0  0  0  0  0  0
   11.7230   -1.3902   22.4236 N   0  0  0  0  0  0
    8.5956   -1.3356   22.3123 C   0  0  0  0  0  0
    5.4774   -6.0269   21.7363 H   0  0  0  0  0  0
    7.1323   -5.9109   22.1996 H   0  0  0  0  0  0
    3.6475   -5.8515   23.3136 H   0  0  0  0  0  0
    4.3498   -5.6600   27.3712 H   0  0  0  0  0  0
    6.6443   -5.2338   28.3138 H   0  0  0  0  0  0
    9.0533   -4.8141   27.9077 H   0  0  0  0  0  0
    9.9335   -4.6853   25.6291 H   0  0  0  0  0  0
    8.4478   -4.9657   23.6985 H   0  0  0  0  0  0
    7.5458   -3.4484   23.1245 H   0  0  0  0  0  0
    5.5506   -1.3453   20.7945 H   0  0  0  0  0  0
    8.5371    1.6967   20.8011 H   0  0  0  0  0  0
   10.6495   -0.4808   23.9881 H   0  0  0  0  0  0
   12.6477    0.5758   24.3745 H   0  0  0  0  0  0
   12.1107    1.7156   23.1346 H   0  0  0  0  0  0
   14.3696    0.0086   22.8974 H   0  0  0  0  0  0
   13.5677    0.7548   21.5211 H   0  0  0  0  0  0
   11.1831   -2.2308   22.2819 H   0  0  0  0  0  0
    9.2169   -1.9662   22.9285 H   0  0  0  0  0  0
  1  2  2  0  0  0
  2  3  1  0  0  0
  2 14  1  0  0  0
  3  4  1  0  0  0
  3 29  1  0  0  0
  3 30  1  0  0  0
  4 13  2  0  0  0
  4  5  1  0  0  0
  5  6  2  0  0  0
  5 31  1  0  0  0
  6  7  1  0  0  0
  7  8  2  0  0  0
  7 32  1  0  0  0
  8 13  1  0  0  0
  8  9  1  0  0  0
  9 10  2  0  0  0
  9 33  1  0  0  0
 10 11  1  0  0  0
 10 34  1  0  0  0
 11 12  2  0  0  0
 11 35  1  0  0  0
 12 13  1  0  0  0
 12 36  1  0  0  0
 14 15  1  0  0  0
 14 37  1  0  0  0
 15 28  2  0  0  0
 15 16  1  0  0  0
 16 17  2  0  0  0
 16 38  1  0  0  0
 17 18  1  0  0  0
 17 19  1  0  0  0
 19 20  2  0  0  0
 19 39  1  0  0  0
 20 21  1  0  0  0
 20 28  1  0  0  0
 21 22  1  0  0  0
 22 27  1  0  0  0
 22 23  1  0  0  0
 22 40  1  0  0  0
 23 24  1  0  0  0
 23 41  1  0  0  0
 23 42  1  0  0  0
 24 25  1  0  0  0
 24 43  1  0  0  0
 24 44  1  0  0  0
 25 26  2  0  0  0
 25 27  1  0  0  0
 27 45  1  0  0  0
 28 46  1  0  0  0
M  END
> <r_i_docking_score>
-7.33949553991672

$$$$
ligprep_5.maegz:413
                    3D
 Schrodinger Suite 2020-4.
 48 51  0  0  1  0            999 V2000
    9.2917   -2.4531   21.9067 O   0  0  0  0  0  0
   10.0250   -1.6961   22.5296 C   0  0  0  0  0  0
   11.4457   -1.7613   23.1253 C   0  0  0  0  0  0
   11.1773   -0.3165   23.6421 C   0  0  1  0  0  0
   12.0874    0.6306   23.1530 O   0  0  0  0  0  0
   11.7809    1.9810   23.1848 C   0  0  0  0  0  0
   12.7531    2.8613   22.7083 C   0  0  0  0  0  0
   12.5204    4.2363   22.6824 C   0  0  0  0  0  0
   13.7388    5.3077   22.0909 Cl  0  0  0  0  0  0
   11.2924    4.7417   23.1073 C   0  0  0  0  0  0
   10.2837    3.8722   23.5431 C   0  0  0  0  0  0
    9.0023    4.2624   23.8738 O   0  0  0  0  0  0
    8.4951    5.4808   23.3345 C   0  0  0  0  0  0
    6.9526    5.4936   23.3789 C   0  0  0  0  0  0
    6.2938    4.6090   22.4100 N   0  0  0  0  0  0
    6.0257    3.2993   22.5768 C   0  0  0  0  0  0
    6.3714    2.6513   23.5650 O   0  0  0  0  0  0
    5.3131    2.7019   21.4636 C   0  0  0  0  0  0
    4.0790    3.1997   21.1541 C   0  0  0  0  0  0
    3.2874    2.8285   19.9922 C   0  0  0  0  0  0
    2.1089    3.1236   19.8243 O   0  0  0  0  0  0
    3.9708    2.0758   19.1079 N   0  0  0  0  0  0
    5.1876    1.4274   19.3435 C   0  0  0  0  0  0
    5.6575    0.4888   18.4303 C   0  0  0  0  0  0
    6.8183   -0.2273   18.7126 C   0  0  0  0  0  0
    7.5178    0.0062   19.8976 C   0  0  0  0  0  0
    7.0635    0.9670   20.8035 C   0  0  0  0  0  0
    5.8890    1.6845   20.5378 C   0  0  0  0  0  0
   10.5603    2.5115   23.6346 C   0  0  0  0  0  0
    9.8686   -0.3861   22.9511 N   0  0  0  0  0  0
   12.2390   -1.8402   22.3809 H   0  0  0  0  0  0
   11.5673   -2.5110   23.9067 H   0  0  0  0  0  0
   11.1146   -0.2036   24.7283 H   0  0  0  0  0  0
   13.7001    2.4726   22.3635 H   0  0  0  0  0  0
   11.1154    5.8040   23.0488 H   0  0  0  0  0  0
    8.8210    5.6241   22.3021 H   0  0  0  0  0  0
    8.8891    6.3107   23.9223 H   0  0  0  0  0  0
    6.5979    6.5099   23.2066 H   0  0  0  0  0  0
    6.6230    5.2327   24.3861 H   0  0  0  0  0  0
    5.9698    5.0354   21.5491 H   0  0  0  0  0  0
    3.6345    3.9740   21.7647 H   0  0  0  0  0  0
    3.4724    1.8906   18.2476 H   0  0  0  0  0  0
    5.1164    0.2963   17.5145 H   0  0  0  0  0  0
    7.1724   -0.9734   18.0136 H   0  0  0  0  0  0
    8.4027   -0.5752   20.1145 H   0  0  0  0  0  0
    7.6066    1.1340   21.7206 H   0  0  0  0  0  0
    9.7771    1.8787   24.0208 H   0  0  0  0  0  0
    9.3283    0.3424   22.5085 H   0  0  0  0  0  0
  1  2  2  0  0  0
  2 30  1  0  0  0
  2  3  1  0  0  0
  3  4  1  0  0  0
  3 31  1  0  0  0
  3 32  1  0  0  0
  4  5  1  0  0  0
  4 30  1  0  0  0
  4 33  1  0  0  0
  5  6  1  0  0  0
  6 29  2  0  0  0
  6  7  1  0  0  0
  7  8  2  0  0  0
  7 34  1  0  0  0
  8  9  1  0  0  0
  8 10  1  0  0  0
 10 11  2  0  0  0
 10 35  1  0  0  0
 11 12  1  0  0  0
 11 29  1  0  0  0
 12 13  1  0  0  0
 13 14  1  0  0  0
 13 36  1  0  0  0
 13 37  1  0  0  0
 14 15  1  0  0  0
 14 38  1  0  0  0
 14 39  1  0  0  0
 15 16  1  0  0  0
 15 40  1  0  0  0
 16 17  2  0  0  0
 16 18  1  0  0  0
 18 28  1  0  0  0
 18 19  2  0  0  0
 19 20  1  0  0  0
 19 41  1  0  0  0
 20 21  2  0  0  0
 20 22  1  0  0  0
 22 23  1  0  0  0
 22 42  1  0  0  0
 23 28  2  0  0  0
 23 24  1  0  0  0
 24 25  2  0  0  0
 24 43  1  0  0  0
 25 26  1  0  0  0
 25 44  1  0  0  0
 26 27  2  0  0  0
 26 45  1  0  0  0
 27 28  1  0  0  0
 27 46  1  0  0  0
 29 47  1  0  0  0
 30 48  1  0  0  0
M  END
> <r_i_docking_score>
-6.41880870460272

$$$$
ligprep_5.maegz:414
                    3D
 Schrodinger Suite 2020-4.
 43 45  0  0  1  0            999 V2000
    6.7702    6.7170   21.4569 C   0  0  0  0  0  0
    6.7581    5.7177   23.0449 S   0  0  0  0  0  0
    6.0816    6.5082   24.0808 O   0  0  0  0  0  0
    6.3020    4.3574   22.7474 O   0  0  0  0  0  0
    8.4855    5.6247   23.4975 C   0  0  0  0  0  0
    8.9750    6.6934   24.1703 N   0  0  0  0  0  0
   10.2811    6.6166   24.5197 C   0  0  0  0  0  0
   11.0917    5.5266   24.1945 C   0  0  0  0  0  0
   12.7432    5.5484   24.7057 Cl  0  0  0  0  0  0
   10.4936    4.4634   23.4783 C   0  0  0  0  0  0
   11.2852    3.2547   23.0215 C   0  0  0  0  0  0
   12.4427    3.4066   22.6319 O   0  0  0  0  0  0
   10.6421    2.0618   23.0679 N   0  0  0  0  0  0
   11.1324    0.7607   22.7895 C   0  0  0  0  0  0
   12.5033    0.4783   22.6099 C   0  0  0  0  0  0
   12.9365   -0.8099   22.3079 C   0  0  0  0  0  0
   12.0212   -1.8529   22.2413 C   0  0  0  0  0  0
   10.6693   -1.6030   22.4460 C   0  0  0  0  0  0
   10.2075   -0.3053   22.7037 C   0  0  0  0  0  0
    8.7033   -0.1270   22.9393 C   0  0  0  0  0  0
    7.8910    0.2905   21.7156 C   0  0  0  0  0  0
    7.9687   -0.4363   20.5227 C   0  0  0  0  0  0
    7.1990   -0.0612   19.4235 C   0  0  0  0  0  0
    6.3398    1.0306   19.5211 C   0  0  0  0  0  0
    6.2486    1.7534   20.7091 C   0  0  0  0  0  0
    7.0230    1.3811   21.8048 C   0  0  0  0  0  0
    9.1696    4.5060   23.1357 N   0  0  0  0  0  0
    5.7410    6.8065   21.1081 H   0  0  0  0  0  0
    7.3577    6.1873   20.7097 H   0  0  0  0  0  0
    7.1913    7.7011   21.6482 H   0  0  0  0  0  0
   10.6780    7.4548   25.0725 H   0  0  0  0  0  0
    9.6658    2.0964   23.3205 H   0  0  0  0  0  0
   13.2667    1.2358   22.6825 H   0  0  0  0  0  0
   13.9866   -1.0059   22.1519 H   0  0  0  0  0  0
   12.3543   -2.8561   22.0218 H   0  0  0  0  0  0
    9.9755   -2.4302   22.3892 H   0  0  0  0  0  0
    8.2797   -1.0732   23.2812 H   0  0  0  0  0  0
    8.5402    0.5626   23.7686 H   0  0  0  0  0  0
    8.6325   -1.2836   20.4378 H   0  0  0  0  0  0
    7.2672   -0.6144   18.4971 H   0  0  0  0  0  0
    5.7387    1.3242   18.6711 H   0  0  0  0  0  0
    5.5792    2.6005   20.7782 H   0  0  0  0  0  0
    6.9345    1.9313   22.7300 H   0  0  0  0  0  0
  1  2  1  0  0  0
  1 28  1  0  0  0
  1 29  1  0  0  0
  1 30  1  0  0  0
  2  3  2  0  0  0
  2  4  2  0  0  0
  2  5  1  0  0  0
  5 27  2  0  0  0
  5  6  1  0  0  0
  6  7  2  0  0  0
  7  8  1  0  0  0
  7 31  1  0  0  0
  8  9  1  0  0  0
  8 10  2  0  0  0
 10 11  1  0  0  0
 10 27  1  0  0  0
 11 12  2  0  0  0
 11 13  1  0  0  0
 13 14  1  0  0  0
 13 32  1  0  0  0
 14 19  2  0  0  0
 14 15  1  0  0  0
 15 16  2  0  0  0
 15 33  1  0  0  0
 16 17  1  0  0  0
 16 34  1  0  0  0
 17 18  2  0  0  0
 17 35  1  0  0  0
 18 19  1  0  0  0
 18 36  1  0  0  0
 19 20  1  0  0  0
 20 21  1  0  0  0
 20 37  1  0  0  0
 20 38  1  0  0  0
 21 26  2  0  0  0
 21 22  1  0  0  0
 22 23  2  0  0  0
 22 39  1  0  0  0
 23 24  1  0  0  0
 23 40  1  0  0  0
 24 25  2  0  0  0
 24 41  1  0  0  0
 25 26  1  0  0  0
 25 42  1  0  0  0
 26 43  1  0  0  0
M  END
> <r_i_docking_score>
-5.67167673958005

$$$$
ligprep_5.maegz:415
                    3D
 Schrodinger Suite 2020-4.
 25 25  0  0  1  0            999 V2000
    9.3271   -1.6996   22.0459 C   0  0  0  0  0  0
   10.8261   -1.5075   22.3093 C   0  0  0  0  0  0
   11.1623   -0.1231   22.3449 O   0  0  0  0  0  0
   11.1065    0.5934   23.4969 C   0  0  0  0  0  0
   10.7678    0.1405   24.5920 O   0  0  0  0  0  0
   11.5136    2.0079   23.2857 C   0  0  0  0  0  0
   10.6227    2.9504   23.7012 N   0  0  0  0  0  0
   11.0136    4.2467   23.5759 C   0  0  0  0  0  0
    9.8780    5.4901   24.1821 S   0  0  0  0  0  0
    8.7695    5.8547   22.7084 C   0  0  0  0  0  0
    9.0663    4.8650   25.2317 O   0  0  0  0  0  0
   10.6624    6.6946   24.4777 O   0  0  0  0  0  0
   12.1848    4.6942   23.0592 N   0  0  0  0  0  0
   13.0530    3.7310   22.6580 C   0  0  0  0  0  0
   12.7700    2.3651   22.7577 C   0  0  0  0  0  0
   13.9748    1.2054   22.3078 Cl  0  0  0  0  0  0
    9.0804   -2.7596   21.9819 H   0  0  0  0  0  0
    9.0317   -1.2337   21.1057 H   0  0  0  0  0  0
    8.7233   -1.2648   22.8427 H   0  0  0  0  0  0
   11.1262   -2.0146   23.2282 H   0  0  0  0  0  0
   11.3959   -1.9750   21.5072 H   0  0  0  0  0  0
    8.0123    6.5769   23.0099 H   0  0  0  0  0  0
    9.3781    6.2676   21.9075 H   0  0  0  0  0  0
    8.2990    4.9290   22.3825 H   0  0  0  0  0  0
   14.0085    4.0741   22.2880 H   0  0  0  0  0  0
  1  2  1  0  0  0
  1 17  1  0  0  0
  1 18  1  0  0  0
  1 19  1  0  0  0
  2  3  1  0  0  0
  2 20  1  0  0  0
  2 21  1  0  0  0
  3  4  1  0  0  0
  4  5  2  0  0  0
  4  6  1  0  0  0
  6 15  2  0  0  0
  6  7  1  0  0  0
  7  8  2  0  0  0
  8  9  1  0  0  0
  8 13  1  0  0  0
  9 10  1  0  0  0
  9 11  2  0  0  0
  9 12  2  0  0  0
 10 22  1  0  0  0
 10 23  1  0  0  0
 10 24  1  0  0  0
 13 14  2  0  0  0
 14 15  1  0  0  0
 14 25  1  0  0  0
 15 16  1  0  0  0
M  END
> <r_i_docking_score>
-5.10872311475336

$$$$
ligprep_5.maegz:416
                    3D
 Schrodinger Suite 2020-4.
 49 52  0  0  1  0            999 V2000
    5.1135   -5.8377   23.7282 C   0  0  0  0  0  0
    6.1957   -5.3091   22.8965 N   0  0  0  0  0  0
    7.1558   -6.2852   22.3740 C   0  0  0  0  0  0
    6.5214   -3.9230   22.9350 C   0  0  0  0  0  0
    7.6871   -3.4377   22.3261 C   0  0  0  0  0  0
    7.9787   -2.0773   22.2880 C   0  0  0  0  0  0
    7.0906   -1.1499   22.8513 C   0  0  0  0  0  0
    7.2389    0.2467   22.6301 N   0  0  0  0  0  0
    6.0927    0.9484   21.9964 C   0  0  0  0  0  0
    5.9426    0.6992   20.5003 C   0  0  0  0  0  0
    6.1135   -0.5271   19.8306 C   0  0  0  0  0  0
    5.9793   -0.4440   18.4558 C   0  0  0  0  0  0
    5.5696    1.1470   17.9431 S   0  0  0  0  0  0
    5.5994    1.6897   19.5851 C   0  0  0  0  0  0
    8.4451    0.8876   22.6601 C   0  0  0  0  0  0
    8.6653    1.8864   21.9689 O   0  0  0  0  0  0
    9.5276    0.4375   23.6752 C   0  0  0  0  0  0
   10.8957    0.8304   23.3268 N   0  0  0  0  0  0
   11.8048   -0.1131   23.0074 N   0  0  0  0  0  0
   12.9744    0.5111   22.6349 N   0  0  0  0  0  0
   12.7514    1.8542   22.6945 C   0  0  0  0  0  0
   13.5684    2.9245   22.3086 C   0  0  0  0  0  0
   13.0980    4.2208   22.5247 C   0  0  0  0  0  0
   11.8360    4.4461   23.0771 C   0  0  0  0  0  0
   10.9773    3.3960   23.4163 C   0  0  0  0  0  0
   11.4529    2.0964   23.1983 C   0  0  0  0  0  0
    5.9492   -1.6246   23.5046 C   0  0  0  0  0  0
    5.6717   -2.9891   23.5484 C   0  0  0  0  0  0
    4.1745   -5.3190   23.5330 H   0  0  0  0  0  0
    4.9436   -6.9008   23.5530 H   0  0  0  0  0  0
    5.3519   -5.7065   24.7849 H   0  0  0  0  0  0
    7.4989   -6.0128   21.3756 H   0  0  0  0  0  0
    8.0321   -6.3362   23.0211 H   0  0  0  0  0  0
    6.7282   -7.2867   22.3088 H   0  0  0  0  0  0
    8.3700   -4.1066   21.8342 H   0  0  0  0  0  0
    8.8561   -1.7514   21.7470 H   0  0  0  0  0  0
    5.1697    0.7016   22.5164 H   0  0  0  0  0  0
    6.1863    2.0223   22.1711 H   0  0  0  0  0  0
    6.3523   -1.4556   20.3217 H   0  0  0  0  0  0
    6.1028   -1.2313   17.7270 H   0  0  0  0  0  0
    5.3930    2.7310   19.7932 H   0  0  0  0  0  0
    9.5045   -0.6355   23.8583 H   0  0  0  0  0  0
    9.2983    0.9134   24.6284 H   0  0  0  0  0  0
   14.5549    2.7480   21.9071 H   0  0  0  0  0  0
   13.7214    5.0642   22.2638 H   0  0  0  0  0  0
   11.4994    5.4633   23.2175 H   0  0  0  0  0  0
    9.9828    3.5852   23.7937 H   0  0  0  0  0  0
    5.2415   -0.9370   23.9449 H   0  0  0  0  0  0
    4.7625   -3.2966   24.0393 H   0  0  0  0  0  0
  1  2  1  0  0  0
  1 29  1  0  0  0
  1 30  1  0  0  0
  1 31  1  0  0  0
  2  3  1  0  0  0
  2  4  1  0  0  0
  3 32  1  0  0  0
  3 33  1  0  0  0
  3 34  1  0  0  0
  4 28  2  0  0  0
  4  5  1  0  0  0
  5  6  2  0  0  0
  5 35  1  0  0  0
  6  7  1  0  0  0
  6 36  1  0  0  0
  7  8  1  0  0  0
  7 27  2  0  0  0
  8  9  1  0  0  0
  8 15  1  0  0  0
  9 10  1  0  0  0
  9 37  1  0  0  0
  9 38  1  0  0  0
 10 14  2  0  0  0
 10 11  1  0  0  0
 11 12  2  0  0  0
 11 39  1  0  0  0
 12 13  1  0  0  0
 12 40  1  0  0  0
 13 14  1  0  0  0
 14 41  1  0  0  0
 15 16  2  0  0  0
 15 17  1  0  0  0
 17 18  1  0  0  0
 17 42  1  0  0  0
 17 43  1  0  0  0
 18 26  1  0  0  0
 18 19  1  0  0  0
 19 20  2  0  0  0
 20 21  1  0  0  0
 21 26  2  0  0  0
 21 22  1  0  0  0
 22 23  2  0  0  0
 22 44  1  0  0  0
 23 24  1  0  0  0
 23 45  1  0  0  0
 24 25  2  0  0  0
 24 46  1  0  0  0
 25 26  1  0  0  0
 25 47  1  0  0  0
 27 28  1  0  0  0
 27 48  1  0  0  0
 28 49  1  0  0  0
M  END
> <r_i_docking_score>
-6.48707183602898

$$$$
ligprep_5.maegz:417
                    3D
 Schrodinger Suite 2020-4.
 29 30  0  0  1  0            999 V2000
    4.5225    2.6055   21.1078 C   0  0  0  0  0  0
    5.1666    1.7581   20.0370 C   0  0  0  0  0  0
    4.9076    1.9462   18.7075 N   0  0  0  0  0  0
    5.5695    1.1089   17.9075 N   0  0  0  0  0  0
    6.2525    0.3568   18.7312 C   0  0  0  0  0  0
    6.0748    0.7054   20.0800 C   0  0  0  0  0  0
    6.7360    0.0888   21.2951 C   0  0  0  0  0  0
    8.1764    0.5779   21.5072 C   0  0  0  0  0  0
    8.5306    1.6900   21.1079 O   0  0  0  0  0  0
    9.0013   -0.3031   22.1037 N   0  0  0  0  0  0
   10.3672   -0.1265   22.3477 C   0  0  0  0  0  0
   10.9246    1.0856   22.7852 C   0  0  0  0  0  0
   12.3043    1.1932   22.9699 C   0  0  0  0  0  0
   13.1293    0.0994   22.7080 C   0  0  0  0  0  0
   12.5691   -1.1089   22.2911 C   0  0  0  0  0  0
   13.5698   -2.4525   21.9079 Cl  0  0  0  0  0  0
   11.1922   -1.2290   22.1328 C   0  0  0  0  0  0
    3.4852    2.3138   21.2800 H   0  0  0  0  0  0
    5.0459    2.5205   22.0610 H   0  0  0  0  0  0
    4.5212    3.6633   20.8425 H   0  0  0  0  0  0
    4.3073    2.6710   18.3355 H   0  0  0  0  0  0
    6.8988   -0.4253   18.3581 H   0  0  0  0  0  0
    6.1689    0.3041   22.2005 H   0  0  0  0  0  0
    6.7349   -0.9964   21.1884 H   0  0  0  0  0  0
    8.6441   -1.2324   22.2615 H   0  0  0  0  0  0
   10.2969    1.9448   22.9729 H   0  0  0  0  0  0
   12.7346    2.1292   23.2948 H   0  0  0  0  0  0
   14.1988    0.1915   22.8232 H   0  0  0  0  0  0
   10.7812   -2.1681   21.7865 H   0  0  0  0  0  0
  1  2  1  0  0  0
  1 18  1  0  0  0
  1 19  1  0  0  0
  1 20  1  0  0  0
  2  6  2  0  0  0
  2  3  1  0  0  0
  3  4  1  0  0  0
  3 21  1  0  0  0
  4  5  2  0  0  0
  5  6  1  0  0  0
  5 22  1  0  0  0
  6  7  1  0  0  0
  7  8  1  0  0  0
  7 23  1  0  0  0
  7 24  1  0  0  0
  8  9  2  0  0  0
  8 10  1  0  0  0
 10 11  1  0  0  0
 10 25  1  0  0  0
 11 17  2  0  0  0
 11 12  1  0  0  0
 12 13  2  0  0  0
 12 26  1  0  0  0
 13 14  1  0  0  0
 13 27  1  0  0  0
 14 15  2  0  0  0
 14 28  1  0  0  0
 15 16  1  0  0  0
 15 17  1  0  0  0
 17 29  1  0  0  0
M  END
> <r_i_docking_score>
-6.02680488173453

$$$$
ligprep_5.maegz:419
                    3D
 Schrodinger Suite 2020-4.
 51 54  0  0  1  0            999 V2000
    5.3029   -6.6048   23.3951 C   0  0  0  0  0  0
    6.4551   -6.2895   22.4276 C   0  0  0  0  0  0
    6.4947   -4.7963   22.1033 C   0  0  0  0  0  0
    5.5700   -4.2967   21.4577 O   0  0  0  0  0  0
    7.5450   -4.1016   22.5786 N   0  0  0  0  0  0
    7.6143   -2.7042   22.6440 C   0  0  0  0  0  0
    8.8048   -2.0728   22.2836 C   0  0  0  0  0  0
    8.8892   -0.6833   22.3329 C   0  0  0  0  0  0
    7.7911    0.0678   22.7753 C   0  0  0  0  0  0
    7.8225    1.4771   22.7573 N   0  0  0  0  0  0
    6.7213    2.1982   22.0581 C   0  0  0  0  0  0
    6.2647    1.6962   20.6856 C   0  0  0  0  0  0
    5.2553    2.3466   19.9564 C   0  0  0  0  0  0
    5.0179    1.7969   18.7070 C   0  0  0  0  0  0
    5.9708    0.3940   18.4132 S   0  0  0  0  0  0
    6.7473    0.6120   19.9425 C   0  0  0  0  0  0
    8.4569    2.1480   23.7653 C   0  0  0  0  0  0
    8.0965    3.2652   24.1447 O   0  0  0  0  0  0
    9.7148    1.5732   24.4466 C   0  0  0  0  0  0
   10.9501    1.8818   23.7257 N   0  0  0  0  0  0
   11.7742    0.8885   23.3365 N   0  0  0  0  0  0
   12.8707    1.4435   22.7133 N   0  0  0  0  0  0
   12.7201    2.7971   22.7610 C   0  0  0  0  0  0
   13.5696    3.8169   22.3251 C   0  0  0  0  0  0
   13.1699    5.1399   22.5186 C   0  0  0  0  0  0
   11.9582    5.4402   23.1401 C   0  0  0  0  0  0
   11.0976    4.4436   23.6034 C   0  0  0  0  0  0
   11.4993    3.1150   23.4023 C   0  0  0  0  0  0
    6.6120   -0.5735   23.1666 C   0  0  0  0  0  0
    6.5235   -1.9549   23.1023 C   0  0  0  0  0  0
    5.2206   -7.6791   23.5229 H   0  0  0  0  0  0
    4.3384   -6.2660   23.0132 H   0  0  0  0  0  0
    5.4711   -6.1766   24.3837 H   0  0  0  0  0  0
    7.4061   -6.6238   22.8448 H   0  0  0  0  0  0
    6.3135   -6.8510   21.5081 H   0  0  0  0  0  0
    8.3641   -4.6119   22.8712 H   0  0  0  0  0  0
    9.6493   -2.6479   21.9271 H   0  0  0  0  0  0
    9.7914   -0.1963   21.9950 H   0  0  0  0  0  0
    5.8671    2.2157   22.7350 H   0  0  0  0  0  0
    7.0095    3.2448   21.9384 H   0  0  0  0  0  0
    4.7513    3.2395   20.3056 H   0  0  0  0  0  0
    4.3699    2.1705   17.9264 H   0  0  0  0  0  0
    7.5211   -0.0879   20.2043 H   0  0  0  0  0  0
    9.8028    2.0019   25.4460 H   0  0  0  0  0  0
    9.6336    0.4981   24.6097 H   0  0  0  0  0  0
   14.5351    3.5802   21.9077 H   0  0  0  0  0  0
   13.8191    5.9459   22.2081 H   0  0  0  0  0  0
   11.6804    6.4756   23.2791 H   0  0  0  0  0  0
   10.1693    4.6978   24.0930 H   0  0  0  0  0  0
    5.7521   -0.0064   23.4959 H   0  0  0  0  0  0
    5.6021   -2.4359   23.3972 H   0  0  0  0  0  0
  1  2  1  0  0  0
  1 31  1  0  0  0
  1 32  1  0  0  0
  1 33  1  0  0  0
  2  3  1  0  0  0
  2 34  1  0  0  0
  2 35  1  0  0  0
  3  4  2  0  0  0
  3  5  1  0  0  0
  5  6  1  0  0  0
  5 36  1  0  0  0
  6 30  2  0  0  0
  6  7  1  0  0  0
  7  8  2  0  0  0
  7 37  1  0  0  0
  8  9  1  0  0  0
  8 38  1  0  0  0
  9 10  1  0  0  0
  9 29  2  0  0  0
 10 11  1  0  0  0
 10 17  1  0  0  0
 11 12  1  0  0  0
 11 39  1  0  0  0
 11 40  1  0  0  0
 12 16  2  0  0  0
 12 13  1  0  0  0
 13 14  2  0  0  0
 13 41  1  0  0  0
 14 15  1  0  0  0
 14 42  1  0  0  0
 15 16  1  0  0  0
 16 43  1  0  0  0
 17 18  2  0  0  0
 17 19  1  0  0  0
 19 20  1  0  0  0
 19 44  1  0  0  0
 19 45  1  0  0  0
 20 28  1  0  0  0
 20 21  1  0  0  0
 21 22  2  0  0  0
 22 23  1  0  0  0
 23 28  2  0  0  0
 23 24  1  0  0  0
 24 25  2  0  0  0
 24 46  1  0  0  0
 25 26  1  0  0  0
 25 47  1  0  0  0
 26 27  2  0  0  0
 26 48  1  0  0  0
 27 28  1  0  0  0
 27 49  1  0  0  0
 29 30  1  0  0  0
 29 50  1  0  0  0
 30 51  1  0  0  0
M  END
> <r_i_docking_score>
-5.6328998757967

$$$$
ligprep_5.maegz:420
                    3D
 Schrodinger Suite 2020-4.
 52 56  0  0  1  0            999 V2000
    2.2137    3.2245   20.8281 O   0  0  0  0  0  0
    2.5512    3.3201   19.6442 C   0  0  0  0  0  0
    3.6470    2.7469   19.1077 N   0  0  0  0  0  0
    4.7084    2.0782   19.7444 C   0  0  0  0  0  0
    5.5650    1.3316   18.9310 C   0  0  0  0  0  0
    6.6792    0.6984   19.4773 C   0  0  0  0  0  0
    6.9499    0.8025   20.8497 C   0  0  0  0  0  0
    8.0767    0.1318   21.3992 N   0  0  0  0  0  0
    8.2241   -1.3098   21.0933 C   0  0  0  0  0  0
    7.3233   -2.2364   21.9073 C   0  0  0  0  0  0
    7.7542   -3.4513   22.4640 C   0  0  0  0  0  0
    6.7641   -4.1557   23.1337 C   0  0  0  0  0  0
    5.2495   -3.3254   23.1024 S   0  0  0  0  0  0
    5.9697   -2.0437   22.1875 C   0  0  0  0  0  0
    8.9069    0.6922   22.3308 C   0  0  0  0  0  0
    9.6810    0.0166   23.0141 O   0  0  0  0  0  0
    8.9313    2.2325   22.5153 C   0  0  0  0  0  0
   10.2110    2.8594   22.8589 N   0  0  0  0  0  0
   11.3802    2.4072   22.3567 N   0  0  0  0  0  0
   12.3835    3.2827   22.7072 N   0  0  0  0  0  0
   11.8025    4.3037   23.3960 C   0  0  0  0  0  0
   12.3695    5.4586   23.9458 C   0  0  0  0  0  0
   11.5287    6.3474   24.6179 C   0  0  0  0  0  0
   10.1558    6.1126   24.7082 C   0  0  0  0  0  0
    9.5591    4.9764   24.1528 C   0  0  0  0  0  0
   10.4108    4.0692   23.5078 C   0  0  0  0  0  0
    6.0726    1.5339   21.6636 C   0  0  0  0  0  0
    4.9767    2.1845   21.1134 C   0  0  0  0  0  0
    1.7170    4.1534   18.6526 C   0  0  0  0  0  0
    0.3002    4.5043   19.0731 C   0  0  0  0  0  0
    1.3826    5.5576   19.1129 C   0  0  0  0  0  0
    3.7384    2.8324   18.1020 H   0  0  0  0  0  0
    5.3821    1.2536   17.8692 H   0  0  0  0  0  0
    7.3299    0.1440   18.8157 H   0  0  0  0  0  0
    8.0513   -1.4713   20.0313 H   0  0  0  0  0  0
    9.2668   -1.6062   21.2235 H   0  0  0  0  0  0
    8.7686   -3.8133   22.3731 H   0  0  0  0  0  0
    6.8533   -5.1096   23.6324 H   0  0  0  0  0  0
    5.3530   -1.2106   21.8855 H   0  0  0  0  0  0
    8.2551    2.4456   23.3423 H   0  0  0  0  0  0
    8.5536    2.7601   21.6388 H   0  0  0  0  0  0
   13.4287    5.6439   23.8525 H   0  0  0  0  0  0
   11.9430    7.2430   25.0601 H   0  0  0  0  0  0
    9.5364    6.8317   25.2250 H   0  0  0  0  0  0
    8.4936    4.8102   24.2287 H   0  0  0  0  0  0
    6.2193    1.5920   22.7315 H   0  0  0  0  0  0
    4.3518    2.7669   21.7692 H   0  0  0  0  0  0
    1.9351    3.9892   17.5971 H   0  0  0  0  0  0
   -0.4709    4.5729   18.3048 H   0  0  0  0  0  0
   -0.1029    4.1250   20.0124 H   0  0  0  0  0  0
    1.7558    5.9104   20.0764 H   0  0  0  0  0  0
    1.3888    6.3509   18.3632 H   0  0  0  0  0  0
  1  2  2  0  0  0
  2  3  1  0  0  0
  2 29  1  0  0  0
  3  4  1  0  0  0
  3 32  1  0  0  0
  4 28  2  0  0  0
  4  5  1  0  0  0
  5  6  2  0  0  0
  5 33  1  0  0  0
  6  7  1  0  0  0
  6 34  1  0  0  0
  7  8  1  0  0  0
  7 27  2  0  0  0
  8  9  1  0  0  0
  8 15  1  0  0  0
  9 10  1  0  0  0
  9 35  1  0  0  0
  9 36  1  0  0  0
 10 14  2  0  0  0
 10 11  1  0  0  0
 11 12  2  0  0  0
 11 37  1  0  0  0
 12 13  1  0  0  0
 12 38  1  0  0  0
 13 14  1  0  0  0
 14 39  1  0  0  0
 15 16  2  0  0  0
 15 17  1  0  0  0
 17 18  1  0  0  0
 17 40  1  0  0  0
 17 41  1  0  0  0
 18 26  1  0  0  0
 18 19  1  0  0  0
 19 20  2  0  0  0
 20 21  1  0  0  0
 21 26  2  0  0  0
 21 22  1  0  0  0
 22 23  2  0  0  0
 22 42  1  0  0  0
 23 24  1  0  0  0
 23 43  1  0  0  0
 24 25  2  0  0  0
 24 44  1  0  0  0
 25 26  1  0  0  0
 25 45  1  0  0  0
 27 28  1  0  0  0
 27 46  1  0  0  0
 28 47  1  0  0  0
 29 31  1  0  0  0
 29 30  1  0  0  0
 29 48  1  0  0  0
 30 31  1  0  0  0
 30 49  1  0  0  0
 30 50  1  0  0  0
 31 51  1  0  0  0
 31 52  1  0  0  0
M  END
> <r_i_docking_score>
-5.24743918582045

$$$$
ligprep_5.maegz:421
                    3D
 Schrodinger Suite 2020-4.
 46 49  0  0  1  0            999 V2000
   13.3248   -1.3776   21.7282 C   0  0  0  0  0  0
   12.4742   -2.0427   22.7077 N   0  0  0  0  0  0
   11.0843   -1.8927   22.7398 C   0  0  0  0  0  0
   10.4028   -1.0781   21.8386 C   0  0  0  0  0  0
    9.0145   -1.0674   21.8208 C   0  0  0  0  0  0
    8.2800   -1.8474   22.7268 C   0  0  0  0  0  0
    6.8591   -1.8341   22.6747 N   0  0  0  0  0  0
    6.2162   -0.5103   22.4931 C   0  0  0  0  0  0
    5.9896   -0.0944   21.0385 C   0  0  0  0  0  0
    6.1916   -0.8926   19.8969 C   0  0  0  0  0  0
    5.9700   -0.2369   18.6983 C   0  0  0  0  0  0
    5.4048    1.3738   18.9442 S   0  0  0  0  0  0
    5.5699    1.1762   20.6549 C   0  0  0  0  0  0
    6.0530   -2.9449   22.7408 C   0  0  0  0  0  0
    4.8208   -2.8524   22.7092 O   0  0  0  0  0  0
    6.6101   -4.3881   22.7708 C   0  0  0  0  0  0
    5.8013   -5.2929   23.5902 N   0  0  0  0  0  0
    4.8526   -6.0532   23.0102 N   0  0  0  0  0  0
    4.1782   -6.7418   23.9917 N   0  0  0  0  0  0
    4.7051   -6.3640   25.1897 C   0  0  0  0  0  0
    4.3631   -6.7552   26.4902 C   0  0  0  0  0  0
    5.0833   -6.2005   27.5508 C   0  0  0  0  0  0
    6.1007   -5.2715   27.3269 C   0  0  0  0  0  0
    6.4557   -4.8589   26.0387 C   0  0  0  0  0  0
    5.7459   -5.4282   24.9726 C   0  0  0  0  0  0
    8.9786   -2.5608   23.7099 C   0  0  0  0  0  0
   10.3679   -2.6031   23.6996 C   0  0  0  0  0  0
   14.3685   -1.6518   21.8924 H   0  0  0  0  0  0
   13.0555   -1.6624   20.7099 H   0  0  0  0  0  0
   13.2458   -0.2941   21.8225 H   0  0  0  0  0  0
   12.8603   -2.8263   23.2156 H   0  0  0  0  0  0
   10.9371   -0.4945   21.1080 H   0  0  0  0  0  0
    8.5360   -0.4604   21.0697 H   0  0  0  0  0  0
    5.2811   -0.4867   23.0507 H   0  0  0  0  0  0
    6.8300    0.2407   22.9912 H   0  0  0  0  0  0
    6.5209   -1.9211   19.9454 H   0  0  0  0  0  0
    6.0775   -0.6284   17.6955 H   0  0  0  0  0  0
    5.3327    2.0042   21.3059 H   0  0  0  0  0  0
    7.6372   -4.5007   23.0830 H   0  0  0  0  0  0
    6.5863   -4.7492   21.7414 H   0  0  0  0  0  0
    3.5783   -7.4736   26.6697 H   0  0  0  0  0  0
    4.8499   -6.4979   28.5625 H   0  0  0  0  0  0
    6.6322   -4.8634   28.1749 H   0  0  0  0  0  0
    7.2444   -4.1392   25.8945 H   0  0  0  0  0  0
    8.4534   -3.1088   24.4742 H   0  0  0  0  0  0
   10.8815   -3.2140   24.4269 H   0  0  0  0  0  0
  1  2  1  0  0  0
  1 28  1  0  0  0
  1 29  1  0  0  0
  1 30  1  0  0  0
  2  3  1  0  0  0
  2 31  1  0  0  0
  3 27  2  0  0  0
  3  4  1  0  0  0
  4  5  2  0  0  0
  4 32  1  0  0  0
  5  6  1  0  0  0
  5 33  1  0  0  0
  6  7  1  0  0  0
  6 26  2  0  0  0
  7  8  1  0  0  0
  7 14  1  0  0  0
  8  9  1  0  0  0
  8 34  1  0  0  0
  8 35  1  0  0  0
  9 13  2  0  0  0
  9 10  1  0  0  0
 10 11  2  0  0  0
 10 36  1  0  0  0
 11 12  1  0  0  0
 11 37  1  0  0  0
 12 13  1  0  0  0
 13 38  1  0  0  0
 14 15  2  0  0  0
 14 16  1  0  0  0
 16 17  1  0  0  0
 16 39  1  0  0  0
 16 40  1  0  0  0
 17 25  1  0  0  0
 17 18  1  0  0  0
 18 19  2  0  0  0
 19 20  1  0  0  0
 20 25  2  0  0  0
 20 21  1  0  0  0
 21 22  2  0  0  0
 21 41  1  0  0  0
 22 23  1  0  0  0
 22 42  1  0  0  0
 23 24  2  0  0  0
 23 43  1  0  0  0
 24 25  1  0  0  0
 24 44  1  0  0  0
 26 27  1  0  0  0
 26 45  1  0  0  0
 27 46  1  0  0  0
M  END
> <r_i_docking_score>
-5.17948139933621

$$$$
ligprep_5.maegz:422
                    3D
 Schrodinger Suite 2020-4.
 62 66  0  0  1  0            999 V2000
    9.8774   -5.1917   26.6697 C   0  0  0  0  0  0
    8.5497   -5.4667   27.1152 O   0  0  0  0  0  0
    7.4977   -5.2512   26.2485 C   0  0  0  0  0  0
    6.2124   -5.4792   26.7526 C   0  0  0  0  0  0
    5.0625   -5.2445   25.9934 C   0  0  0  0  0  0
    5.2299   -4.7516   24.6925 C   0  0  0  0  0  0
    4.3134   -4.4036   23.7430 N   0  0  0  0  0  0
    5.0094   -3.9588   22.6396 N   0  0  0  0  0  0
    6.3281   -4.0453   22.9036 N   0  0  0  0  0  0
    7.3172   -3.6513   21.9080 C   0  0  0  0  0  0
    8.1897   -2.4525   22.3502 C   0  0  0  0  0  0
    9.1706   -2.7417   23.0395 O   0  0  0  0  0  0
    7.8858   -1.1610   21.9924 N   0  0  0  0  0  0
    6.8836   -0.9386   20.9097 C   0  0  0  0  0  0
    6.1095    0.3788   20.8112 C   0  0  0  0  0  0
    5.5544    0.7517   19.5818 C   0  0  0  0  0  0
    4.8423    1.9493   19.5023 C   0  0  0  0  0  0
    4.7134    2.7470   20.6412 C   0  0  0  0  0  0
    5.3034    2.3162   21.8291 C   0  0  0  0  0  0
    5.9865    1.1473   21.9288 N   0  0  0  0  0  0
    8.7322   -0.0832   22.4158 C   0  0  0  0  0  0
    9.1043    0.9151   21.5082 C   0  0  0  0  0  0
    9.9024    1.9796   21.9101 C   0  0  0  0  0  0
   10.3393    2.0832   23.2308 C   0  0  0  0  0  0
   11.1647    3.2944   23.6758 C   0  0  0  0  0  0
   12.4781    3.4787   22.8827 C   0  0  0  0  0  0
   13.2292    4.7712   23.2765 C   0  0  0  0  0  0
   12.3702    5.9470   23.2160 N   0  0  1  0  0  0
   11.1829    5.8262   24.0589 C   0  0  0  0  0  0
   10.3366    4.5970   23.6724 C   0  0  0  0  0  0
    9.9766    1.0942   24.1502 C   0  0  0  0  0  0
    9.1816    0.0243   23.7461 C   0  0  0  0  0  0
    6.5291   -4.5412   24.1802 C   0  0  0  0  0  0
    7.6765   -4.8111   24.9271 C   0  0  0  0  0  0
   10.5690   -5.2533   27.5082 H   0  0  0  0  0  0
    9.9689   -4.1820   26.2689 H   0  0  0  0  0  0
   10.1976   -5.9079   25.9099 H   0  0  0  0  0  0
    6.1106   -5.8440   27.7639 H   0  0  0  0  0  0
    4.0765   -5.4215   26.3997 H   0  0  0  0  0  0
    7.9711   -4.5084   21.7488 H   0  0  0  0  0  0
    6.8296   -3.5126   20.9473 H   0  0  0  0  0  0
    7.3853   -1.1137   19.9562 H   0  0  0  0  0  0
    6.0813   -1.6704   20.9665 H   0  0  0  0  0  0
    5.6641    0.1310   18.7049 H   0  0  0  0  0  0
    4.4039    2.2665   18.5654 H   0  0  0  0  0  0
    4.1809    3.6865   20.5968 H   0  0  0  0  0  0
    5.2306    2.9093   22.7296 H   0  0  0  0  0  0
    8.7682    0.8719   20.4841 H   0  0  0  0  0  0
   10.1638    2.7424   21.1944 H   0  0  0  0  0  0
   11.4446    3.0889   24.7076 H   0  0  0  0  0  0
   13.1497    2.6451   23.0945 H   0  0  0  0  0  0
   12.3133    3.4878   21.8042 H   0  0  0  0  0  0
   13.6410    4.7243   24.2861 H   0  0  0  0  0  0
   14.0698    4.9292   22.5987 H   0  0  0  0  0  0
   12.9126    6.7496   23.5074 H   0  0  0  0  0  0
   11.4844    5.7679   25.1060 H   0  0  0  0  0  0
   10.5885    6.7337   23.9449 H   0  0  0  0  0  0
    9.8581    4.7797   22.7093 H   0  0  0  0  0  0
    9.5378    4.5174   24.4105 H   0  0  0  0  0  0
   10.2878    1.1600   25.1851 H   0  0  0  0  0  0
    8.8956   -0.7099   24.4852 H   0  0  0  0  0  0
    8.6557   -4.6559   24.5049 H   0  0  0  0  0  0
  1  2  1  0  0  0
  1 35  1  0  0  0
  1 36  1  0  0  0
  1 37  1  0  0  0
  2  3  1  0  0  0
  3 34  2  0  0  0
  3  4  1  0  0  0
  4  5  2  0  0  0
  4 38  1  0  0  0
  5  6  1  0  0  0
  5 39  1  0  0  0
  6 33  2  0  0  0
  6  7  1  0  0  0
  7  8  2  0  0  0
  8  9  1  0  0  0
  9 10  1  0  0  0
  9 33  1  0  0  0
 10 11  1  0  0  0
 10 40  1  0  0  0
 10 41  1  0  0  0
 11 12  2  0  0  0
 11 13  1  0  0  0
 13 14  1  0  0  0
 13 21  1  0  0  0
 14 15  1  0  0  0
 14 42  1  0  0  0
 14 43  1  0  0  0
 15 20  2  0  0  0
 15 16  1  0  0  0
 16 17  2  0  0  0
 16 44  1  0  0  0
 17 18  1  0  0  0
 17 45  1  0  0  0
 18 19  2  0  0  0
 18 46  1  0  0  0
 19 20  1  0  0  0
 19 47  1  0  0  0
 21 32  2  0  0  0
 21 22  1  0  0  0
 22 23  2  0  0  0
 22 48  1  0  0  0
 23 24  1  0  0  0
 23 49  1  0  0  0
 24 25  1  0  0  0
 24 31  2  0  0  0
 25 30  1  0  0  0
 25 26  1  0  0  0
 25 50  1  0  0  0
 26 27  1  0  0  0
 26 51  1  0  0  0
 26 52  1  0  0  0
 27 28  1  0  0  0
 27 53  1  0  0  0
 27 54  1  0  0  0
 28 29  1  0  0  0
 28 55  1  0  0  0
 29 30  1  0  0  0
 29 56  1  0  0  0
 29 57  1  0  0  0
 30 58  1  0  0  0
 30 59  1  0  0  0
 31 32  1  0  0  0
 31 60  1  0  0  0
 32 61  1  0  0  0
 33 34  1  0  0  0
 34 62  1  0  0  0
M  END
> <r_i_docking_score>
-5.56815441471698

$$$$
ligprep_5.maegz:423
                    3D
 Schrodinger Suite 2020-4.
 54 57  0  0  1  0            999 V2000
    5.9086    6.0568   24.3953 C   0  0  0  0  0  0
    6.3794    5.1921   23.1876 C   0  0  0  0  0  0
    5.1064    4.8472   22.3605 C   0  0  0  0  0  0
    7.4056    6.0587   22.3866 C   0  0  0  0  0  0
    7.1696    6.3470   21.1080 N   0  0  0  0  0  0
    8.4250    6.4843   22.9279 O   0  0  0  0  0  0
    7.0515    3.8548   23.6113 C   0  0  0  0  0  0
    7.6832    3.0493   22.6463 C   0  0  0  0  0  0
    8.2315    1.8161   22.9883 C   0  0  0  0  0  0
    8.1348    1.3624   24.3039 C   0  0  0  0  0  0
    8.6740    0.1197   24.6662 N   0  0  0  0  0  0
   10.0537    0.1239   25.1787 C   0  0  0  0  0  0
   11.0859   -0.0557   24.0801 C   0  0  0  0  0  0
   11.1696   -1.1560   23.2071 C   0  0  0  0  0  0
   12.2246   -1.0829   22.3079 C   0  0  0  0  0  0
   13.1696    0.3469   22.5406 S   0  0  0  0  0  0
   12.1036    0.8516   23.8064 C   0  0  0  0  0  0
    7.9498   -1.0336   24.5892 C   0  0  0  0  0  0
    8.3941   -2.1055   25.0092 O   0  0  0  0  0  0
    6.5490   -1.0042   23.9288 C   0  0  0  0  0  0
    5.8368   -2.2833   23.9018 N   0  0  0  0  0  0
    4.7011   -2.4377   24.6120 N   0  0  0  0  0  0
    4.2282   -3.7154   24.4167 N   0  0  0  0  0  0
    5.1039   -4.3490   23.5881 C   0  0  0  0  0  0
    5.0977   -5.6614   23.1004 C   0  0  0  0  0  0
    6.1498   -6.0531   22.2725 C   0  0  0  0  0  0
    7.1656   -5.1644   21.9195 C   0  0  0  0  0  0
    7.1879   -3.8440   22.3784 C   0  0  0  0  0  0
    6.1442   -3.4572   23.2282 C   0  0  0  0  0  0
    7.5278    2.1512   25.2807 C   0  0  0  0  0  0
    6.9841    3.3833   24.9333 C   0  0  0  0  0  0
    6.7264    6.2839   25.0822 H   0  0  0  0  0  0
    5.4909    7.0117   24.0696 H   0  0  0  0  0  0
    5.1251    5.5617   24.9706 H   0  0  0  0  0  0
    5.3378    4.2287   21.4937 H   0  0  0  0  0  0
    4.3838    4.2883   22.9565 H   0  0  0  0  0  0
    4.5971    5.7399   21.9937 H   0  0  0  0  0  0
    6.3491    5.9836   20.6110 H   0  0  0  0  0  0
    7.8316    6.9210   20.5974 H   0  0  0  0  0  0
    7.7456    3.3781   21.6182 H   0  0  0  0  0  0
    8.7163    1.2134   22.2340 H   0  0  0  0  0  0
   10.2238    1.0612   25.7103 H   0  0  0  0  0  0
   10.1735   -0.6439   25.9434 H   0  0  0  0  0  0
   10.4784   -1.9862   23.2342 H   0  0  0  0  0  0
   12.4854   -1.7978   21.5404 H   0  0  0  0  0  0
   12.2873    1.7896   24.3073 H   0  0  0  0  0  0
    5.9263   -0.2691   24.4418 H   0  0  0  0  0  0
    6.6488   -0.6756   22.8942 H   0  0  0  0  0  0
    4.3151   -6.3546   23.3704 H   0  0  0  0  0  0
    6.1814   -7.0693   21.9080 H   0  0  0  0  0  0
    7.9675   -5.5105   21.2821 H   0  0  0  0  0  0
    7.9885   -3.1706   22.1078 H   0  0  0  0  0  0
    7.4676    1.8067   26.3036 H   0  0  0  0  0  0
    6.5050    3.9537   25.7131 H   0  0  0  0  0  0
  1  2  1  0  0  0
  1 32  1  0  0  0
  1 33  1  0  0  0
  1 34  1  0  0  0
  2  3  1  0  0  0
  2  4  1  0  0  0
  2  7  1  0  0  0
  3 35  1  0  0  0
  3 36  1  0  0  0
  3 37  1  0  0  0
  4  5  1  0  0  0
  4  6  2  0  0  0
  5 38  1  0  0  0
  5 39  1  0  0  0
  7 31  2  0  0  0
  7  8  1  0  0  0
  8  9  2  0  0  0
  8 40  1  0  0  0
  9 10  1  0  0  0
  9 41  1  0  0  0
 10 11  1  0  0  0
 10 30  2  0  0  0
 11 12  1  0  0  0
 11 18  1  0  0  0
 12 13  1  0  0  0
 12 42  1  0  0  0
 12 43  1  0  0  0
 13 17  2  0  0  0
 13 14  1  0  0  0
 14 15  2  0  0  0
 14 44  1  0  0  0
 15 16  1  0  0  0
 15 45  1  0  0  0
 16 17  1  0  0  0
 17 46  1  0  0  0
 18 19  2  0  0  0
 18 20  1  0  0  0
 20 21  1  0  0  0
 20 47  1  0  0  0
 20 48  1  0  0  0
 21 29  1  0  0  0
 21 22  1  0  0  0
 22 23  2  0  0  0
 23 24  1  0  0  0
 24 29  2  0  0  0
 24 25  1  0  0  0
 25 26  2  0  0  0
 25 49  1  0  0  0
 26 27  1  0  0  0
 26 50  1  0  0  0
 27 28  2  0  0  0
 27 51  1  0  0  0
 28 29  1  0  0  0
 28 52  1  0  0  0
 30 31  1  0  0  0
 30 53  1  0  0  0
 31 54  1  0  0  0
M  END
> <r_i_docking_score>
-4.4987184284883

$$$$
ligprep_5.maegz:424
                    3D
 Schrodinger Suite 2020-4.
 37 40  0  0  1  0            999 V2000
    7.6134    0.0312   24.2638 O   0  0  0  0  0  0
    7.8533   -0.6622   23.2724 C   0  0  0  0  0  0
    8.7287   -1.6905   23.2265 N   0  0  0  0  0  0
    9.9235   -1.7264   24.0689 C   0  0  0  0  0  0
   11.1297   -1.0720   23.4177 C   0  0  0  0  0  0
   12.0382   -1.8530   22.6999 C   0  0  0  0  0  0
   13.1751   -1.2694   22.1440 C   0  0  0  0  0  0
   13.4091    0.0954   22.3079 C   0  0  0  0  0  0
   12.4847    0.8865   22.9862 C   0  0  0  0  0  0
   12.7356    2.5891   23.0810 Cl  0  0  0  0  0  0
   11.3527    0.3022   23.5573 C   0  0  0  0  0  0
    8.5767   -2.5516   22.0862 C   0  0  0  0  0  0
    7.8416   -1.6354   21.1553 C   0  0  0  0  0  0
    7.3549   -0.5502   22.0010 N   0  0  0  0  0  0
    6.5811    0.5399   21.4949 C   0  0  0  0  0  0
    6.1920    1.5314   22.3521 N   0  0  0  0  0  0
    5.4257    2.5603   21.9234 C   0  0  0  0  0  0
    4.9731    2.7057   20.6167 C   0  0  0  0  0  0
    5.3867    1.7172   19.7245 C   0  0  0  0  0  0
    5.1696    1.5471   18.3739 N   0  0  0  0  0  0
    5.7591    0.4383   17.9083 N   0  0  0  0  0  0
    6.3714   -0.1218   18.9163 C   0  0  0  0  0  0
    6.1927    0.6202   20.1306 C   0  0  0  0  0  0
   10.1581   -2.7642   24.3095 H   0  0  0  0  0  0
    9.7329   -1.2329   25.0242 H   0  0  0  0  0  0
   11.8708   -2.9128   22.5756 H   0  0  0  0  0  0
   13.8770   -1.8758   21.5911 H   0  0  0  0  0  0
   14.2845    0.5500   21.8673 H   0  0  0  0  0  0
   10.6429    0.9159   24.0938 H   0  0  0  0  0  0
    9.5428   -2.8523   21.6787 H   0  0  0  0  0  0
    7.9973   -3.4395   22.3431 H   0  0  0  0  0  0
    7.0013   -2.1633   20.7042 H   0  0  0  0  0  0
    8.5134   -1.2520   20.3836 H   0  0  0  0  0  0
    5.1678    3.2967   22.6705 H   0  0  0  0  0  0
    4.3703    3.5476   20.3076 H   0  0  0  0  0  0
    4.6231    2.1342   17.7535 H   0  0  0  0  0  0
    6.9253   -1.0320   18.7479 H   0  0  0  0  0  0
  1  2  2  0  0  0
  2 14  1  0  0  0
  2  3  1  0  0  0
  3  4  1  0  0  0
  3 12  1  0  0  0
  4  5  1  0  0  0
  4 24  1  0  0  0
  4 25  1  0  0  0
  5 11  2  0  0  0
  5  6  1  0  0  0
  6  7  2  0  0  0
  6 26  1  0  0  0
  7  8  1  0  0  0
  7 27  1  0  0  0
  8  9  2  0  0  0
  8 28  1  0  0  0
  9 10  1  0  0  0
  9 11  1  0  0  0
 11 29  1  0  0  0
 12 13  1  0  0  0
 12 30  1  0  0  0
 12 31  1  0  0  0
 13 14  1  0  0  0
 13 32  1  0  0  0
 13 33  1  0  0  0
 14 15  1  0  0  0
 15 23  2  0  0  0
 15 16  1  0  0  0
 16 17  2  0  0  0
 17 18  1  0  0  0
 17 34  1  0  0  0
 18 19  2  0  0  0
 18 35  1  0  0  0
 19 23  1  0  0  0
 19 20  1  0  0  0
 20 21  1  0  0  0
 20 36  1  0  0  0
 21 22  2  0  0  0
 22 23  1  0  0  0
 22 37  1  0  0  0
M  END
> <r_i_docking_score>
-6.56839995084836

$$$$
ligprep_5.maegz:425
                    3D
 Schrodinger Suite 2020-4.
 47 49  0  0  1  0            999 V2000
    8.7292   -1.3199   21.1079 C   0  0  0  0  0  0
    8.1967   -0.0774   21.5514 O   0  0  0  0  0  0
    7.1908    0.5390   20.8260 C   0  0  0  0  0  0
    6.7539    0.0854   19.5682 C   0  0  0  0  0  0
    5.7453    0.7578   18.8831 C   0  0  0  0  0  0
    5.1573    1.8865   19.4453 C   0  0  0  0  0  0
    5.5763    2.3459   20.6926 C   0  0  0  0  0  0
    6.5981    1.6815   21.3929 C   0  0  0  0  0  0
    7.0614    2.0722   22.6388 O   0  0  0  0  0  0
    6.6078    3.2735   23.2700 C   0  0  0  0  0  0
    7.3007    4.5404   22.7125 C   0  0  0  0  0  0
    8.7608    4.4501   22.7079 N   0  0  0  0  0  0
    9.5668    4.4227   23.7827 C   0  0  0  0  0  0
    9.1851    4.5824   24.9413 O   0  0  0  0  0  0
   10.9328    4.1020   23.4231 C   0  0  0  0  0  0
   11.6966    5.1404   22.9742 C   0  0  0  0  0  0
   13.0108    5.0116   22.3722 C   0  0  0  0  0  0
   13.6653    5.9360   21.9083 O   0  0  0  0  0  0
   13.4516    3.7432   22.3085 N   0  0  0  0  0  0
   12.7629    2.5951   22.7073 C   0  0  0  0  0  0
   13.3395    1.3548   22.4592 C   0  0  0  0  0  0
   12.6739    0.1978   22.8408 C   0  0  0  0  0  0
   11.4525    0.2867   23.5016 C   0  0  0  0  0  0
   10.8531    1.5318   23.7635 C   0  0  0  0  0  0
    9.6580    1.6483   24.4482 O   0  0  0  0  0  0
    9.0012    0.4936   24.9576 C   0  0  0  0  0  0
   11.4981    2.7080   23.3191 C   0  0  0  0  0  0
    9.5182   -1.6357   21.7906 H   0  0  0  0  0  0
    7.9649   -2.0980   21.1083 H   0  0  0  0  0  0
    9.1696   -1.2534   20.1132 H   0  0  0  0  0  0
    7.1899   -0.7832   19.0996 H   0  0  0  0  0  0
    5.4234    0.4104   17.9121 H   0  0  0  0  0  0
    4.3815    2.4190   18.9103 H   0  0  0  0  0  0
    5.0993    3.2281   21.0899 H   0  0  0  0  0  0
    5.5218    3.3633   23.2411 H   0  0  0  0  0  0
    6.8556    3.1725   24.3275 H   0  0  0  0  0  0
    6.9812    4.7071   21.6830 H   0  0  0  0  0  0
    6.9863    5.4201   23.2751 H   0  0  0  0  0  0
    9.1987    4.3460   21.7972 H   0  0  0  0  0  0
   11.3007    6.1468   22.9776 H   0  0  0  0  0  0
   14.3597    3.6541   21.8828 H   0  0  0  0  0  0
   14.2952    1.2846   21.9589 H   0  0  0  0  0  0
   13.1099   -0.7703   22.6396 H   0  0  0  0  0  0
   10.9773   -0.6337   23.8023 H   0  0  0  0  0  0
    8.0934    0.8030   25.4730 H   0  0  0  0  0  0
    8.7092   -0.1881   24.1582 H   0  0  0  0  0  0
    9.6264   -0.0371   25.6778 H   0  0  0  0  0  0
  1  2  1  0  0  0
  1 28  1  0  0  0
  1 29  1  0  0  0
  1 30  1  0  0  0
  2  3  1  0  0  0
  3  8  2  0  0  0
  3  4  1  0  0  0
  4  5  2  0  0  0
  4 31  1  0  0  0
  5  6  1  0  0  0
  5 32  1  0  0  0
  6  7  2  0  0  0
  6 33  1  0  0  0
  7  8  1  0  0  0
  7 34  1  0  0  0
  8  9  1  0  0  0
  9 10  1  0  0  0
 10 11  1  0  0  0
 10 35  1  0  0  0
 10 36  1  0  0  0
 11 12  1  0  0  0
 11 37  1  0  0  0
 11 38  1  0  0  0
 12 13  1  0  0  0
 12 39  1  0  0  0
 13 14  2  0  0  0
 13 15  1  0  0  0
 15 27  1  0  0  0
 15 16  2  0  0  0
 16 17  1  0  0  0
 16 40  1  0  0  0
 17 18  2  0  0  0
 17 19  1  0  0  0
 19 20  1  0  0  0
 19 41  1  0  0  0
 20 27  2  0  0  0
 20 21  1  0  0  0
 21 22  2  0  0  0
 21 42  1  0  0  0
 22 23  1  0  0  0
 22 43  1  0  0  0
 23 24  2  0  0  0
 23 44  1  0  0  0
 24 25  1  0  0  0
 24 27  1  0  0  0
 25 26  1  0  0  0
 26 45  1  0  0  0
 26 46  1  0  0  0
 26 47  1  0  0  0
M  END
> <r_i_docking_score>
-6.69580661075395

$$$$
ligprep_5.maegz:426
                    3D
 Schrodinger Suite 2020-4.
 37 39  0  0  1  0            999 V2000
    6.0194    2.9137   21.6006 C   0  0  0  0  0  0
    6.0261    1.8017   20.5601 C   0  0  0  0  0  0
    5.2572    1.9473   19.4015 C   0  0  0  0  0  0
    5.2998    0.9407   18.4368 C   0  0  0  0  0  0
    6.0020   -0.2074   18.5908 N   0  0  0  0  0  0
    6.7305   -0.3523   19.7233 C   0  0  0  0  0  0
    6.7931    0.6288   20.7177 C   0  0  0  0  0  0
    7.6447    0.4182   21.8091 N   0  0  0  0  0  0
    8.8342    1.0342   21.9440 C   0  0  0  0  0  0
    9.2798    1.8283   21.1108 O   0  0  0  0  0  0
    9.6330    0.6675   23.2129 C   0  0  0  0  0  0
   11.0783    1.0096   23.0930 N   0  0  0  0  0  0
   11.9281   -0.0278   22.8298 C   0  0  0  0  0  0
   11.6057   -1.2052   22.6630 O   0  0  0  0  0  0
   13.4082    0.4302   22.7579 C   0  0  0  0  0  0
   13.5700    1.7335   22.1716 O   0  0  0  0  0  0
   12.7595    2.7063   22.7079 C   0  0  0  0  0  0
   13.2146    4.0208   22.6909 C   0  0  0  0  0  0
   12.3955    5.0359   23.1780 C   0  0  0  0  0  0
   11.1198    4.7333   23.6575 C   0  0  0  0  0  0
   10.1062    5.9976   24.2486 Cl  0  0  0  0  0  0
   10.6640    3.4114   23.6572 C   0  0  0  0  0  0
   11.4848    2.3716   23.1850 C   0  0  0  0  0  0
    5.8452    2.4977   22.5942 H   0  0  0  0  0  0
    6.9793    3.4300   21.6114 H   0  0  0  0  0  0
    5.2339    3.6445   21.4066 H   0  0  0  0  0  0
    4.6776    2.8428   19.2268 H   0  0  0  0  0  0
    4.7661    1.0453   17.5083 H   0  0  0  0  0  0
    7.3144   -1.2561   19.7978 H   0  0  0  0  0  0
    7.4134   -0.3417   22.4307 H   0  0  0  0  0  0
    9.2064    1.1795   24.0711 H   0  0  0  0  0  0
    9.4865   -0.3843   23.4616 H   0  0  0  0  0  0
   13.7609    0.4561   23.7890 H   0  0  0  0  0  0
   13.9829   -0.3129   22.2056 H   0  0  0  0  0  0
   14.1984    4.2479   22.3056 H   0  0  0  0  0  0
   12.7448    6.0582   23.1729 H   0  0  0  0  0  0
    9.6641    3.2206   24.0155 H   0  0  0  0  0  0
  1  2  1  0  0  0
  1 24  1  0  0  0
  1 25  1  0  0  0
  1 26  1  0  0  0
  2  7  2  0  0  0
  2  3  1  0  0  0
  3  4  2  0  0  0
  3 27  1  0  0  0
  4  5  1  0  0  0
  4 28  1  0  0  0
  5  6  2  0  0  0
  6  7  1  0  0  0
  6 29  1  0  0  0
  7  8  1  0  0  0
  8  9  1  0  0  0
  8 30  1  0  0  0
  9 10  2  0  0  0
  9 11  1  0  0  0
 11 12  1  0  0  0
 11 31  1  0  0  0
 11 32  1  0  0  0
 12 23  1  0  0  0
 12 13  1  0  0  0
 13 14  2  0  0  0
 13 15  1  0  0  0
 15 16  1  0  0  0
 15 33  1  0  0  0
 15 34  1  0  0  0
 16 17  1  0  0  0
 17 23  2  0  0  0
 17 18  1  0  0  0
 18 19  2  0  0  0
 18 35  1  0  0  0
 19 20  1  0  0  0
 19 36  1  0  0  0
 20 21  1  0  0  0
 20 22  2  0  0  0
 22 23  1  0  0  0
 22 37  1  0  0  0
M  END
> <r_i_docking_score>
-6.72839818672612

$$$$
ligprep_5.maegz:427
                    3D
 Schrodinger Suite 2020-4.
 46 48  0  0  1  0            999 V2000
    6.0947    3.6265   22.2516 C   0  0  0  0  0  0
    6.7922    2.3934   22.0832 O   0  0  0  0  0  0
    6.5354    1.6155   20.9686 C   0  0  0  0  0  0
    5.5718    1.9461   19.9974 C   0  0  0  0  0  0
    5.3925    1.1470   18.8722 C   0  0  0  0  0  0
    6.1563   -0.0035   18.7081 C   0  0  0  0  0  0
    7.1038   -0.3488   19.6682 C   0  0  0  0  0  0
    7.3106    0.4533   20.8038 C   0  0  0  0  0  0
    8.2552    0.1669   21.7780 O   0  0  0  0  0  0
    9.2221   -0.8696   21.5591 C   0  0  0  0  0  0
   10.4576   -0.6666   22.4662 C   0  0  1  0  0  0
   11.5981   -1.6233   22.0501 C   0  0  0  0  0  0
   10.8326    0.7539   22.5194 N   0  0  0  0  0  0
   11.9214    1.3276   23.0609 C   0  0  0  0  0  0
   12.8843    0.7043   23.5071 O   0  0  0  0  0  0
   11.8640    2.7743   23.0654 C   0  0  0  0  0  0
   12.9114    3.4393   22.5005 C   0  0  0  0  0  0
   13.0410    4.8851   22.4293 C   0  0  0  0  0  0
   13.9710    5.4890   21.9084 O   0  0  0  0  0  0
   12.0236    5.5524   23.0051 N   0  0  0  0  0  0
   10.9000    4.9932   23.6195 C   0  0  0  0  0  0
    9.9357    5.8264   24.1855 C   0  0  0  0  0  0
    8.8352    5.2666   24.8276 C   0  0  0  0  0  0
    7.9050    6.0687   25.3868 F   0  0  0  0  0  0
    8.6946    3.8815   24.9014 C   0  0  0  0  0  0
    9.6537    3.0441   24.3299 C   0  0  0  0  0  0
   10.7692    3.5923   23.6772 C   0  0  0  0  0  0
    6.4048    4.0959   23.1835 H   0  0  0  0  0  0
    6.3201    4.3245   21.4426 H   0  0  0  0  0  0
    5.0155    3.4752   22.3063 H   0  0  0  0  0  0
    4.9712    2.8413   20.0817 H   0  0  0  0  0  0
    4.6631    1.4225   18.1234 H   0  0  0  0  0  0
    6.0218   -0.6222   17.8331 H   0  0  0  0  0  0
    7.6713   -1.2528   19.5106 H   0  0  0  0  0  0
    8.7673   -1.8460   21.7286 H   0  0  0  0  0  0
    9.5666   -0.8542   20.5270 H   0  0  0  0  0  0
   10.1522   -0.9327   23.4797 H   0  0  0  0  0  0
   11.2197   -2.6352   21.9009 H   0  0  0  0  0  0
   12.0597   -1.3142   21.1106 H   0  0  0  0  0  0
   12.3690   -1.7069   22.8170 H   0  0  0  0  0  0
   10.1093    1.3793   22.1911 H   0  0  0  0  0  0
   13.7376    2.8889   22.0654 H   0  0  0  0  0  0
   12.1277    6.5505   22.9583 H   0  0  0  0  0  0
   10.0323    6.8982   24.1413 H   0  0  0  0  0  0
    7.8399    3.4559   25.4059 H   0  0  0  0  0  0
    9.5190    1.9765   24.4140 H   0  0  0  0  0  0
  1  2  1  0  0  0
  1 28  1  0  0  0
  1 29  1  0  0  0
  1 30  1  0  0  0
  2  3  1  0  0  0
  3  8  2  0  0  0
  3  4  1  0  0  0
  4  5  2  0  0  0
  4 31  1  0  0  0
  5  6  1  0  0  0
  5 32  1  0  0  0
  6  7  2  0  0  0
  6 33  1  0  0  0
  7  8  1  0  0  0
  7 34  1  0  0  0
  8  9  1  0  0  0
  9 10  1  0  0  0
 10 11  1  0  0  0
 10 35  1  0  0  0
 10 36  1  0  0  0
 11 12  1  0  0  0
 11 13  1  0  0  0
 11 37  1  0  0  0
 12 38  1  0  0  0
 12 39  1  0  0  0
 12 40  1  0  0  0
 13 14  1  0  0  0
 13 41  1  0  0  0
 14 15  2  0  0  0
 14 16  1  0  0  0
 16 27  1  0  0  0
 16 17  2  0  0  0
 17 18  1  0  0  0
 17 42  1  0  0  0
 18 19  2  0  0  0
 18 20  1  0  0  0
 20 21  1  0  0  0
 20 43  1  0  0  0
 21 27  2  0  0  0
 21 22  1  0  0  0
 22 23  2  0  0  0
 22 44  1  0  0  0
 23 24  1  0  0  0
 23 25  1  0  0  0
 25 26  2  0  0  0
 25 45  1  0  0  0
 26 27  1  0  0  0
 26 46  1  0  0  0
M  END
> <r_i_docking_score>
-6.09432178739371

$$$$
ligprep_5.maegz:428
                    3D
 Schrodinger Suite 2020-4.
 46 48  0  0  1  0            999 V2000
    6.0319    3.6259   22.2361 C   0  0  0  0  0  0
    6.7431    2.4007   22.0856 O   0  0  0  0  0  0
    6.5130    1.6187   20.9663 C   0  0  0  0  0  0
    5.5698    1.9469   19.9743 C   0  0  0  0  0  0
    5.4125    1.1454   18.8479 C   0  0  0  0  0  0
    6.1771   -0.0074   18.7069 C   0  0  0  0  0  0
    7.1053   -0.3520   19.6859 C   0  0  0  0  0  0
    7.2905    0.4565   20.8199 C   0  0  0  0  0  0
    8.2144    0.1757   21.8140 O   0  0  0  0  0  0
    9.1792   -0.8675   21.6307 C   0  0  0  0  0  0
   10.3761   -0.6673   22.5870 C   0  0  1  0  0  0
   11.5117   -1.6687   22.2738 C   0  0  0  0  0  0
   10.7731    0.7477   22.6160 N   0  0  0  0  0  0
   11.8850    1.3226   23.1065 C   0  0  0  0  0  0
   12.8651    0.6989   23.5077 O   0  0  0  0  0  0
   11.8335    2.7720   23.0926 C   0  0  0  0  0  0
   12.8876    3.4229   22.5197 C   0  0  0  0  0  0
   13.0214    4.8654   22.4104 C   0  0  0  0  0  0
   13.9698    5.4559   21.9079 O   0  0  0  0  0  0
   11.9830    5.5468   22.9280 N   0  0  0  0  0  0
   10.8507    5.0072   23.5443 C   0  0  0  0  0  0
    9.8741    5.8587   24.0593 C   0  0  0  0  0  0
    8.7660    5.3207   24.7143 C   0  0  0  0  0  0
    8.6384    3.9394   24.8580 C   0  0  0  0  0  0
    7.5728    3.4256   25.5115 F   0  0  0  0  0  0
    9.6101    3.0867   24.3347 C   0  0  0  0  0  0
   10.7276    3.6087   23.6631 C   0  0  0  0  0  0
    6.3276    4.1066   23.1667 H   0  0  0  0  0  0
    6.2537    4.3196   21.4235 H   0  0  0  0  0  0
    4.9550    3.4622   22.2844 H   0  0  0  0  0  0
    4.9682    2.8423   20.0417 H   0  0  0  0  0  0
    4.7017    1.4218   18.0821 H   0  0  0  0  0  0
    6.0574   -0.6312   17.8327 H   0  0  0  0  0  0
    7.6775   -1.2529   19.5419 H   0  0  0  0  0  0
    8.7129   -1.8419   21.7836 H   0  0  0  0  0  0
    9.5682   -0.8531   20.6147 H   0  0  0  0  0  0
   10.0122   -0.8950   23.5915 H   0  0  0  0  0  0
   11.1136   -2.6694   22.1009 H   0  0  0  0  0  0
   12.0641   -1.3865   21.3782 H   0  0  0  0  0  0
   12.2080   -1.7665   23.1063 H   0  0  0  0  0  0
   10.0433    1.3751   22.3083 H   0  0  0  0  0  0
   13.7144    2.8623   22.1025 H   0  0  0  0  0  0
   12.0884    6.5436   22.8548 H   0  0  0  0  0  0
    9.9690    6.9294   23.9601 H   0  0  0  0  0  0
    8.0035    5.9701   25.1183 H   0  0  0  0  0  0
    9.4797    2.0243   24.4765 H   0  0  0  0  0  0
  1  2  1  0  0  0
  1 28  1  0  0  0
  1 29  1  0  0  0
  1 30  1  0  0  0
  2  3  1  0  0  0
  3  8  2  0  0  0
  3  4  1  0  0  0
  4  5  2  0  0  0
  4 31  1  0  0  0
  5  6  1  0  0  0
  5 32  1  0  0  0
  6  7  2  0  0  0
  6 33  1  0  0  0
  7  8  1  0  0  0
  7 34  1  0  0  0
  8  9  1  0  0  0
  9 10  1  0  0  0
 10 11  1  0  0  0
 10 35  1  0  0  0
 10 36  1  0  0  0
 11 12  1  0  0  0
 11 13  1  0  0  0
 11 37  1  0  0  0
 12 38  1  0  0  0
 12 39  1  0  0  0
 12 40  1  0  0  0
 13 14  1  0  0  0
 13 41  1  0  0  0
 14 15  2  0  0  0
 14 16  1  0  0  0
 16 27  1  0  0  0
 16 17  2  0  0  0
 17 18  1  0  0  0
 17 42  1  0  0  0
 18 19  2  0  0  0
 18 20  1  0  0  0
 20 21  1  0  0  0
 20 43  1  0  0  0
 21 27  2  0  0  0
 21 22  1  0  0  0
 22 23  2  0  0  0
 22 44  1  0  0  0
 23 24  1  0  0  0
 23 45  1  0  0  0
 24 25  1  0  0  0
 24 26  2  0  0  0
 26 27  1  0  0  0
 26 46  1  0  0  0
M  END
> <r_i_docking_score>
-6.0963257417614

$$$$
ligprep_5.maegz:429
                    3D
 Schrodinger Suite 2020-4.
 37 40  0  0  1  0            999 V2000
    9.0873    1.2541   21.1079 O   0  0  0  0  0  0
    8.6136    1.3595   22.2408 C   0  0  0  0  0  0
    7.4955    0.7147   22.6346 N   0  0  0  0  0  0
    6.8978   -0.2881   21.8873 C   0  0  0  0  0  0
    6.7550   -1.5105   22.3414 N   0  0  0  0  0  0
    6.1695   -2.2668   21.3329 N   0  0  0  0  0  0
    5.9696   -1.4529   20.3296 C   0  0  0  0  0  0
    6.3609   -0.1642   20.6130 N   0  0  0  0  0  0
    6.2100    1.0257   19.7690 C   0  0  0  0  0  0
    5.5696    0.9171   18.3935 C   0  0  0  0  0  0
    4.8135    1.5607   19.5274 C   0  0  0  0  0  0
    9.3285    2.2613   23.2842 C   0  0  2  0  0  0
    8.7500    3.6953   23.1750 C   0  0  0  0  0  0
    9.7105    4.7113   23.8145 C   0  0  0  0  0  0
   10.9531    4.7192   23.1079 O   0  0  0  0  0  0
   11.5460    3.4838   22.9243 C   0  0  0  0  0  0
   12.8861    3.5149   22.5413 C   0  0  0  0  0  0
   13.5693    2.3237   22.3080 C   0  0  0  0  0  0
   12.9398    1.1038   22.5379 C   0  0  0  0  0  0
   13.8015   -0.3727   22.3084 Cl  0  0  0  0  0  0
   11.5954    1.0773   22.9027 C   0  0  0  0  0  0
   10.8483    2.2616   23.0202 C   0  0  0  0  0  0
    7.1835    0.8148   23.5872 H   0  0  0  0  0  0
    5.5500   -1.7079   19.3708 H   0  0  0  0  0  0
    7.0056    1.7570   19.8885 H   0  0  0  0  0  0
    5.9567    1.5473   17.5928 H   0  0  0  0  0  0
    5.2221   -0.0403   18.0086 H   0  0  0  0  0  0
    3.9694    1.0348   19.9755 H   0  0  0  0  0  0
    4.6671    2.6426   19.5141 H   0  0  0  0  0  0
    9.1172    1.8456   24.2711 H   0  0  0  0  0  0
    7.7709    3.7528   23.6532 H   0  0  0  0  0  0
    8.6119    3.9934   22.1323 H   0  0  0  0  0  0
    9.8772    4.4571   24.8630 H   0  0  0  0  0  0
    9.2819    5.7136   23.7831 H   0  0  0  0  0  0
   13.3892    4.4608   22.4068 H   0  0  0  0  0  0
   14.5932    2.3461   21.9646 H   0  0  0  0  0  0
   11.1078    0.1209   23.0250 H   0  0  0  0  0  0
  1  2  2  0  0  0
  2  3  1  0  0  0
  2 12  1  0  0  0
  3  4  1  0  0  0
  3 23  1  0  0  0
  4  8  1  0  0  0
  4  5  2  0  0  0
  5  6  1  0  0  0
  6  7  2  0  0  0
  7  8  1  0  0  0
  7 24  1  0  0  0
  8  9  1  0  0  0
  9 11  1  0  0  0
  9 10  1  0  0  0
  9 25  1  0  0  0
 10 11  1  0  0  0
 10 26  1  0  0  0
 10 27  1  0  0  0
 11 28  1  0  0  0
 11 29  1  0  0  0
 12 22  1  0  0  0
 12 13  1  0  0  0
 12 30  1  0  0  0
 13 14  1  0  0  0
 13 31  1  0  0  0
 13 32  1  0  0  0
 14 15  1  0  0  0
 14 33  1  0  0  0
 14 34  1  0  0  0
 15 16  1  0  0  0
 16 22  2  0  0  0
 16 17  1  0  0  0
 17 18  2  0  0  0
 17 35  1  0  0  0
 18 19  1  0  0  0
 18 36  1  0  0  0
 19 20  1  0  0  0
 19 21  2  0  0  0
 21 22  1  0  0  0
 21 37  1  0  0  0
M  END
> <r_i_docking_score>
-5.45894814195796

$$$$
ligprep_5.maegz:430
                    3D
 Schrodinger Suite 2020-4.
 34 36  0  0  1  0            999 V2000
    6.4123    0.2775   18.4792 C   0  0  0  0  0  0
    5.6786    1.1252   19.5077 C   0  0  0  0  0  0
    4.6366    1.9582   19.0940 C   0  0  0  0  0  0
    3.9785    2.7464   20.0368 C   0  0  0  0  0  0
    4.3034    2.7475   21.3528 N   0  0  0  0  0  0
    5.3238    1.9475   21.7480 C   0  0  0  0  0  0
    6.0350    1.1273   20.8654 C   0  0  0  0  0  0
    7.0897    0.3524   21.3505 N   0  0  0  0  0  0
    6.8930   -0.9595   21.9197 C   0  0  0  0  0  0
    8.2893   -1.3608   22.2828 C   0  0  0  0  0  0
    9.0610   -0.1372   22.1050 N   0  0  0  0  0  0
   10.4526   -0.0588   22.3407 C   0  0  0  0  0  0
   11.0708    1.1337   22.7630 C   0  0  0  0  0  0
   12.4513    1.1886   22.9531 C   0  0  0  0  0  0
   13.2317    0.0605   22.7075 C   0  0  0  0  0  0
   12.6228   -1.1287   22.3066 C   0  0  0  0  0  0
   13.5703   -2.5051   21.9080 Cl  0  0  0  0  0  0
   11.2440   -1.1983   22.1499 C   0  0  0  0  0  0
    8.3453    0.8419   21.4870 C   0  0  0  0  0  0
    8.7497    1.9465   21.1105 O   0  0  0  0  0  0
    6.1462   -0.7762   18.5923 H   0  0  0  0  0  0
    6.1847    0.5951   17.4601 H   0  0  0  0  0  0
    7.4957    0.3640   18.6024 H   0  0  0  0  0  0
    4.3700    2.0278   18.0520 H   0  0  0  0  0  0
    3.1998    3.4303   19.7328 H   0  0  0  0  0  0
    5.5716    1.9779   22.7976 H   0  0  0  0  0  0
    6.2443   -0.9079   22.7965 H   0  0  0  0  0  0
    6.4633   -1.6373   21.1807 H   0  0  0  0  0  0
    8.6467   -2.1478   21.6177 H   0  0  0  0  0  0
    8.3546   -1.7060   23.3153 H   0  0  0  0  0  0
   10.4864    2.0269   22.9402 H   0  0  0  0  0  0
   12.9176    2.1117   23.2678 H   0  0  0  0  0  0
   14.3027    0.1112   22.8180 H   0  0  0  0  0  0
   10.8112   -2.1276   21.8101 H   0  0  0  0  0  0
  1  2  1  0  0  0
  1 21  1  0  0  0
  1 22  1  0  0  0
  1 23  1  0  0  0
  2  7  2  0  0  0
  2  3  1  0  0  0
  3  4  2  0  0  0
  3 24  1  0  0  0
  4  5  1  0  0  0
  4 25  1  0  0  0
  5  6  2  0  0  0
  6  7  1  0  0  0
  6 26  1  0  0  0
  7  8  1  0  0  0
  8 19  1  0  0  0
  8  9  1  0  0  0
  9 10  1  0  0  0
  9 27  1  0  0  0
  9 28  1  0  0  0
 10 11  1  0  0  0
 10 29  1  0  0  0
 10 30  1  0  0  0
 11 12  1  0  0  0
 11 19  1  0  0  0
 12 18  2  0  0  0
 12 13  1  0  0  0
 13 14  2  0  0  0
 13 31  1  0  0  0
 14 15  1  0  0  0
 14 32  1  0  0  0
 15 16  2  0  0  0
 15 33  1  0  0  0
 16 17  1  0  0  0
 16 18  1  0  0  0
 18 34  1  0  0  0
 19 20  2  0  0  0
M  END
> <r_i_docking_score>
-6.56693091091832

$$$$
ligprep_5.maegz:431
                    3D
 Schrodinger Suite 2020-4.
 37 39  0  0  1  0            999 V2000
    8.7999   -1.2482   24.3347 O   0  0  0  0  0  0
    9.0485   -2.1674   23.5550 C   0  0  0  0  0  0
    8.0682   -3.3447   23.4544 C   0  0  0  0  0  0
    7.8902   -4.0781   24.7839 C   0  0  0  0  0  0
    8.9841   -4.5737   25.5085 C   0  0  0  0  0  0
    8.7695   -5.2529   26.7075 C   0  0  0  0  0  0
    7.4574   -5.4272   27.1476 C   0  0  0  0  0  0
    6.3803   -4.9693   26.4611 N   0  0  0  0  0  0
    6.6081   -4.3072   25.2985 C   0  0  0  0  0  0
   10.1474   -2.2475   22.7780 N   0  0  0  0  0  0
   11.2316   -1.3606   22.6839 C   0  0  0  0  0  0
   12.3688   -1.8519   22.0415 C   0  0  0  0  0  0
   13.5039   -1.0622   21.9081 C   0  0  0  0  0  0
   13.5107    0.2382   22.4037 C   0  0  0  0  0  0
   12.3724    0.7587   23.0247 C   0  0  0  0  0  0
   12.3723    2.0432   23.5075 O   0  0  0  0  0  0
   11.9715    3.0442   22.6214 C   0  0  2  0  0  0
   13.0787    3.5128   21.6377 C   0  0  0  0  0  0
   12.9996    4.8656   22.3592 C   0  0  0  0  0  0
   13.5694    5.9451   22.2382 O   0  0  0  0  0  0
   11.9980    4.4024   23.2053 N   0  0  0  0  0  0
   11.2385   -0.0424   23.1709 C   0  0  0  0  0  0
    8.4284   -4.0658   22.7186 H   0  0  0  0  0  0
    7.1145   -2.9641   23.0836 H   0  0  0  0  0  0
    9.9937   -4.4406   25.1467 H   0  0  0  0  0  0
    9.6005   -5.6508   27.2717 H   0  0  0  0  0  0
    7.2510   -5.9672   28.0604 H   0  0  0  0  0  0
    5.7305   -3.9539   24.7772 H   0  0  0  0  0  0
   10.2478   -3.0859   22.2219 H   0  0  0  0  0  0
   12.3774   -2.8530   21.6367 H   0  0  0  0  0  0
   14.3695   -1.4626   21.4069 H   0  0  0  0  0  0
   14.3940    0.8486   22.2969 H   0  0  0  0  0  0
   11.0136    2.7624   22.1737 H   0  0  0  0  0  0
   14.0339    3.0082   21.7609 H   0  0  0  0  0  0
   12.7685    3.5473   20.5944 H   0  0  0  0  0  0
   11.2494    4.9387   23.6165 H   0  0  0  0  0  0
   10.3773    0.3890   23.6559 H   0  0  0  0  0  0
  1  2  2  0  0  0
  2  3  1  0  0  0
  2 10  1  0  0  0
  3  4  1  0  0  0
  3 23  1  0  0  0
  3 24  1  0  0  0
  4  9  2  0  0  0
  4  5  1  0  0  0
  5  6  2  0  0  0
  5 25  1  0  0  0
  6  7  1  0  0  0
  6 26  1  0  0  0
  7  8  2  0  0  0
  7 27  1  0  0  0
  8  9  1  0  0  0
  9 28  1  0  0  0
 10 11  1  0  0  0
 10 29  1  0  0  0
 11 22  2  0  0  0
 11 12  1  0  0  0
 12 13  2  0  0  0
 12 30  1  0  0  0
 13 14  1  0  0  0
 13 31  1  0  0  0
 14 15  2  0  0  0
 14 32  1  0  0  0
 15 16  1  0  0  0
 15 22  1  0  0  0
 16 17  1  0  0  0
 17 21  1  0  0  0
 17 18  1  0  0  0
 17 33  1  0  0  0
 18 19  1  0  0  0
 18 34  1  0  0  0
 18 35  1  0  0  0
 19 20  2  0  0  0
 19 21  1  0  0  0
 21 36  1  0  0  0
 22 37  1  0  0  0
M  END
> <r_i_docking_score>
-4.77677779884966

$$$$
ligprep_5.maegz:432
                    3D
 Schrodinger Suite 2020-4.
 39 41  0  0  1  0            999 V2000
   13.3831   -2.3473   21.9908 C   0  0  0  0  0  0
   12.3147   -1.3219   22.3004 C   0  0  0  0  0  0
   12.6549    0.0234   22.4457 C   0  0  0  0  0  0
   11.6701    0.9752   22.7108 C   0  0  0  0  0  0
   12.0790    2.3188   22.7689 N   0  0  0  0  0  0
   11.4799    3.3306   23.4272 C   0  0  0  0  0  0
   10.5324    3.1817   24.2014 O   0  0  0  0  0  0
   12.0817    4.7255   23.1784 C   0  0  0  0  0  0
   11.3961    5.8276   23.9813 C   0  0  0  0  0  0
   10.1252    6.3065   23.6365 C   0  0  0  0  0  0
    9.4594    7.2191   24.3895 N   0  0  0  0  0  0
   10.0998    7.6506   25.5083 C   0  0  0  0  0  0
   11.3353    7.2659   25.9251 N   0  0  0  0  0  0
   11.9678    6.3479   25.1475 C   0  0  0  0  0  0
   10.3311    0.5655   22.8262 C   0  0  0  0  0  0
    9.9807   -0.7756   22.6763 C   0  0  0  0  0  0
    8.6509   -1.1237   22.7879 O   0  0  0  0  0  0
    8.0921   -1.9448   21.8012 C   0  0  2  0  0  0
    6.6507   -1.5352   21.3983 C   0  0  0  0  0  0
    6.2349   -2.9305   21.9061 C   0  0  0  0  0  0
    5.1803   -3.5632   21.9376 O   0  0  0  0  0  0
    7.5376   -3.2209   22.3078 N   0  0  0  0  0  0
   10.9831   -1.7210   22.4298 C   0  0  0  0  0  0
   13.2105   -3.2528   22.5733 H   0  0  0  0  0  0
   13.3698   -2.6076   20.9293 H   0  0  0  0  0  0
   14.3695   -1.9761   22.2650 H   0  0  0  0  0  0
   13.6868    0.3285   22.3349 H   0  0  0  0  0  0
   12.9421    2.5301   22.2927 H   0  0  0  0  0  0
   11.9686    4.9523   22.1180 H   0  0  0  0  0  0
   13.1518    4.7143   23.3889 H   0  0  0  0  0  0
    9.6068    5.9348   22.7626 H   0  0  0  0  0  0
    9.5821    8.3760   26.1167 H   0  0  0  0  0  0
   12.9351    6.0183   25.4917 H   0  0  0  0  0  0
    9.5430    1.2842   22.9992 H   0  0  0  0  0  0
    8.7882   -2.0533   20.9621 H   0  0  0  0  0  0
    6.2328   -0.7067   21.9704 H   0  0  0  0  0  0
    6.5091   -1.3851   20.3281 H   0  0  0  0  0  0
    7.9654   -4.1345   22.3425 H   0  0  0  0  0  0
   10.7216   -2.7646   22.3189 H   0  0  0  0  0  0
  1  2  1  0  0  0
  1 24  1  0  0  0
  1 25  1  0  0  0
  1 26  1  0  0  0
  2 23  2  0  0  0
  2  3  1  0  0  0
  3  4  2  0  0  0
  3 27  1  0  0  0
  4  5  1  0  0  0
  4 15  1  0  0  0
  5  6  1  0  0  0
  5 28  1  0  0  0
  6  7  2  0  0  0
  6  8  1  0  0  0
  8  9  1  0  0  0
  8 29  1  0  0  0
  8 30  1  0  0  0
  9 14  2  0  0  0
  9 10  1  0  0  0
 10 11  2  0  0  0
 10 31  1  0  0  0
 11 12  1  0  0  0
 12 13  2  0  0  0
 12 32  1  0  0  0
 13 14  1  0  0  0
 14 33  1  0  0  0
 15 16  2  0  0  0
 15 34  1  0  0  0
 16 17  1  0  0  0
 16 23  1  0  0  0
 17 18  1  0  0  0
 18 22  1  0  0  0
 18 19  1  0  0  0
 18 35  1  0  0  0
 19 20  1  0  0  0
 19 36  1  0  0  0
 19 37  1  0  0  0
 20 21  2  0  0  0
 20 22  1  0  0  0
 22 38  1  0  0  0
 23 39  1  0  0  0
M  END
> <r_i_docking_score>
-5.80319690343353

$$$$
ligprep_5.maegz:433
                    3D
 Schrodinger Suite 2020-4.
 31 32  0  0  1  0            999 V2000
    6.7951   -0.5630   18.8541 C   0  0  0  0  0  0
    5.9710    0.5764   19.4319 C   0  0  0  0  0  0
    5.1690    1.3301   18.5729 C   0  0  0  0  0  0
    4.3766    2.3471   19.1073 C   0  0  0  0  0  0
    4.3604    2.6592   20.4242 N   0  0  0  0  0  0
    5.1687    1.9471   21.2434 C   0  0  0  0  0  0
    5.9737    0.8906   20.8045 C   0  0  0  0  0  0
    6.8409    0.1556   21.8208 C   0  0  0  0  0  0
    8.3208    0.5600   21.7715 C   0  0  0  0  0  0
    8.7039    1.5467   21.1338 O   0  0  0  0  0  0
    9.1393   -0.2519   22.4624 N   0  0  0  0  0  0
   10.5199   -0.1014   22.5636 C   0  0  0  0  0  0
   11.1167    1.1050   22.9582 C   0  0  0  0  0  0
   12.5065    1.1989   23.0333 C   0  0  0  0  0  0
   13.2948    0.0972   22.7011 C   0  0  0  0  0  0
   12.6944   -1.1002   22.3077 C   0  0  0  0  0  0
   13.6491   -2.4528   21.8488 Cl  0  0  0  0  0  0
   11.3094   -1.2092   22.2655 C   0  0  0  0  0  0
    6.7656   -1.4354   19.5037 H   0  0  0  0  0  0
    6.3958   -0.8907   17.8941 H   0  0  0  0  0  0
    7.8352   -0.2630   18.7252 H   0  0  0  0  0  0
    5.1499    1.1336   17.5105 H   0  0  0  0  0  0
    3.7586    2.9575   18.4631 H   0  0  0  0  0  0
    5.1412    2.2312   22.2847 H   0  0  0  0  0  0
    6.4727    0.3595   22.8271 H   0  0  0  0  0  0
    6.7351   -0.9202   21.6825 H   0  0  0  0  0  0
    8.7557   -1.1139   22.8172 H   0  0  0  0  0  0
   10.5079    1.9655   23.1977 H   0  0  0  0  0  0
   12.9728    2.1271   23.3308 H   0  0  0  0  0  0
   14.3695    0.1774   22.7335 H   0  0  0  0  0  0
   10.8592   -2.1414   21.9516 H   0  0  0  0  0  0
  1  2  1  0  0  0
  1 19  1  0  0  0
  1 20  1  0  0  0
  1 21  1  0  0  0
  2  7  2  0  0  0
  2  3  1  0  0  0
  3  4  2  0  0  0
  3 22  1  0  0  0
  4  5  1  0  0  0
  4 23  1  0  0  0
  5  6  2  0  0  0
  6  7  1  0  0  0
  6 24  1  0  0  0
  7  8  1  0  0  0
  8  9  1  0  0  0
  8 25  1  0  0  0
  8 26  1  0  0  0
  9 10  2  0  0  0
  9 11  1  0  0  0
 11 12  1  0  0  0
 11 27  1  0  0  0
 12 18  2  0  0  0
 12 13  1  0  0  0
 13 14  2  0  0  0
 13 28  1  0  0  0
 14 15  1  0  0  0
 14 29  1  0  0  0
 15 16  2  0  0  0
 15 30  1  0  0  0
 16 17  1  0  0  0
 16 18  1  0  0  0
 18 31  1  0  0  0
M  END
> <r_i_docking_score>
-5.54744234731346

$$$$
ligprep_5.maegz:434
                    3D
 Schrodinger Suite 2020-4.
 47 50  0  0  1  0            999 V2000
   13.1914    0.5731   23.1082 O   0  0  0  0  0  0
   12.1010    1.1031   22.8739 C   0  0  0  0  0  0
   11.9811    2.5597   22.9645 C   0  0  0  0  0  0
   12.9334    3.2934   22.3163 C   0  0  0  0  0  0
   13.0210    4.7456   22.3140 C   0  0  0  0  0  0
   13.9690    5.4014   21.9063 O   0  0  0  0  0  0
   11.9578    5.3507   22.8743 N   0  0  0  0  0  0
   10.9177    4.7278   23.5692 C   0  0  0  0  0  0
    9.9336    5.5038   24.1785 C   0  0  0  0  0  0
    8.9364    4.8856   24.9320 C   0  0  0  0  0  0
    8.9528    3.5024   25.1080 C   0  0  0  0  0  0
    9.9549    2.7298   24.5206 C   0  0  0  0  0  0
   10.9206    3.3254   23.7000 C   0  0  0  0  0  0
   11.0117    0.3577   22.5116 N   0  0  0  0  0  0
    9.7584    0.9042   21.9416 C   0  0  0  0  0  0
    8.5427    0.2377   22.6322 C   0  0  0  0  0  0
    8.6087   -1.2258   22.5863 N   0  0  0  0  0  0
    7.4361   -1.7973   23.2667 C   0  0  0  0  0  0
    7.1596   -3.2400   22.8550 C   0  0  0  0  0  0
    6.3704   -3.4865   21.7294 C   0  0  0  0  0  0
    6.1614   -4.7940   21.3019 C   0  0  0  0  0  0
    6.7565   -5.8455   21.9901 C   0  0  0  0  0  0
    7.5692   -5.6124   23.0955 C   0  0  0  0  0  0
    7.7651   -4.3041   23.5344 C   0  0  0  0  0  0
    9.8624   -1.7190   23.1721 C   0  0  0  0  0  0
   11.1131   -1.1185   22.4926 C   0  0  0  0  0  0
   13.7258    2.7977   21.7729 H   0  0  0  0  0  0
   12.0191    6.3528   22.8607 H   0  0  0  0  0  0
    9.9340    6.5777   24.0679 H   0  0  0  0  0  0
    8.1648    5.4786   25.3981 H   0  0  0  0  0  0
    8.2003    3.0264   25.7235 H   0  0  0  0  0  0
    9.9746    1.6661   24.7061 H   0  0  0  0  0  0
    9.6800    1.9880   21.9769 H   0  0  0  0  0  0
    9.7125    0.6350   20.8890 H   0  0  0  0  0  0
    7.6291    0.5747   22.1402 H   0  0  0  0  0  0
    8.4797    0.5405   23.6783 H   0  0  0  0  0  0
    7.5505   -1.7269   24.3503 H   0  0  0  0  0  0
    6.5507   -1.2138   23.0067 H   0  0  0  0  0  0
    5.9367   -2.6644   21.1780 H   0  0  0  0  0  0
    5.5696   -4.9954   20.4234 H   0  0  0  0  0  0
    6.5938   -6.8533   21.6512 H   0  0  0  0  0  0
    8.0444   -6.4473   23.5899 H   0  0  0  0  0  0
    8.3995   -4.1167   24.3872 H   0  0  0  0  0  0
    9.9149   -2.8049   23.0931 H   0  0  0  0  0  0
    9.8732   -1.4591   24.2335 H   0  0  0  0  0  0
   11.1493   -1.4636   21.4592 H   0  0  0  0  0  0
   12.0029   -1.4961   22.9993 H   0  0  0  0  0  0
  1  2  2  0  0  0
  2  3  1  0  0  0
  2 14  1  0  0  0
  3 13  1  0  0  0
  3  4  2  0  0  0
  4  5  1  0  0  0
  4 27  1  0  0  0
  5  6  2  0  0  0
  5  7  1  0  0  0
  7  8  1  0  0  0
  7 28  1  0  0  0
  8 13  2  0  0  0
  8  9  1  0  0  0
  9 10  2  0  0  0
  9 29  1  0  0  0
 10 11  1  0  0  0
 10 30  1  0  0  0
 11 12  2  0  0  0
 11 31  1  0  0  0
 12 13  1  0  0  0
 12 32  1  0  0  0
 14 26  1  0  0  0
 14 15  1  0  0  0
 15 16  1  0  0  0
 15 33  1  0  0  0
 15 34  1  0  0  0
 16 17  1  0  0  0
 16 35  1  0  0  0
 16 36  1  0  0  0
 17 18  1  0  0  0
 17 25  1  0  0  0
 18 19  1  0  0  0
 18 37  1  0  0  0
 18 38  1  0  0  0
 19 24  2  0  0  0
 19 20  1  0  0  0
 20 21  2  0  0  0
 20 39  1  0  0  0
 21 22  1  0  0  0
 21 40  1  0  0  0
 22 23  2  0  0  0
 22 41  1  0  0  0
 23 24  1  0  0  0
 23 42  1  0  0  0
 24 43  1  0  0  0
 25 26  1  0  0  0
 25 44  1  0  0  0
 25 45  1  0  0  0
 26 46  1  0  0  0
 26 47  1  0  0  0
M  END
> <r_i_docking_score>
-6.04403244471827

$$$$
ligprep_5.maegz:435
                    3D
 Schrodinger Suite 2020-4.
 48 51  0  0  1  0            999 V2000
    5.6478   -5.7574   22.5854 C   0  0  0  0  0  0
    5.5706   -4.7791   21.5523 O   0  0  0  0  0  0
    5.8628   -3.4644   21.8545 C   0  0  0  0  0  0
    5.9696   -2.5966   20.7733 C   0  0  0  0  0  0
    6.3095   -1.2634   20.9616 C   0  0  0  0  0  0
    6.5254   -0.7526   22.2481 C   0  0  0  0  0  0
    6.9198    0.5721   22.4445 N   0  0  0  0  0  0
    6.5309    1.3343   23.6506 C   0  0  0  0  0  0
    7.0271    2.8028   23.7297 C   0  0  0  0  0  0
    8.4040    2.8359   23.2160 N   0  0  0  0  0  0
    9.4011    3.3748   23.9765 C   0  0  0  0  0  0
    9.1889    3.9390   25.0531 O   0  0  0  0  0  0
   10.7612    3.2312   23.4837 C   0  0  0  0  0  0
   11.4171    4.3668   23.1078 C   0  0  0  0  0  0
   12.7277    4.4049   22.4772 C   0  0  0  0  0  0
   13.2904    5.4240   22.0925 O   0  0  0  0  0  0
   13.2852    3.1881   22.3113 N   0  0  0  0  0  0
   12.7312    1.9565   22.6858 C   0  0  0  0  0  0
   13.4072    0.7714   22.3978 C   0  0  0  0  0  0
   12.8157   -0.4529   22.7072 C   0  0  0  0  0  0
   11.5697   -0.4936   23.3339 C   0  0  0  0  0  0
   10.9061    0.6897   23.6493 C   0  0  0  0  0  0
   11.4648    1.9274   23.2955 C   0  0  0  0  0  0
    8.5975    2.3539   21.8269 C   0  0  0  0  0  0
    7.4258    1.4461   21.3730 C   0  0  0  0  0  0
    6.3688   -1.6213   23.3386 C   0  0  0  0  0  0
    6.0500   -2.9643   23.1491 C   0  0  0  0  0  0
    5.5293   -6.7488   22.1493 H   0  0  0  0  0  0
    6.6156   -5.7400   23.0913 H   0  0  0  0  0  0
    4.8550   -5.6188   23.3221 H   0  0  0  0  0  0
    5.8144   -2.9671   19.7719 H   0  0  0  0  0  0
    6.3850   -0.6369   20.0859 H   0  0  0  0  0  0
    5.4440    1.3207   23.7526 H   0  0  0  0  0  0
    7.0090    0.8261   24.4900 H   0  0  0  0  0  0
    6.9003    3.2127   24.7334 H   0  0  0  0  0  0
    6.4231    3.4251   23.0683 H   0  0  0  0  0  0
   10.9322    5.3298   23.2062 H   0  0  0  0  0  0
   14.1893    3.2170   21.8716 H   0  0  0  0  0  0
   14.3690    0.7957   21.9063 H   0  0  0  0  0  0
   13.3205   -1.3763   22.4610 H   0  0  0  0  0  0
   11.1197   -1.4459   23.5773 H   0  0  0  0  0  0
    9.9373    0.6339   24.1276 H   0  0  0  0  0  0
    8.7522    3.1527   21.1074 H   0  0  0  0  0  0
    9.4529    1.6862   21.7978 H   0  0  0  0  0  0
    6.5718    2.0577   21.0724 H   0  0  0  0  0  0
    7.7415    0.8799   20.4983 H   0  0  0  0  0  0
    6.5231   -1.2727   24.3485 H   0  0  0  0  0  0
    5.9582   -3.6012   24.0150 H   0  0  0  0  0  0
  1  2  1  0  0  0
  1 28  1  0  0  0
  1 29  1  0  0  0
  1 30  1  0  0  0
  2  3  1  0  0  0
  3 27  2  0  0  0
  3  4  1  0  0  0
  4  5  2  0  0  0
  4 31  1  0  0  0
  5  6  1  0  0  0
  5 32  1  0  0  0
  6  7  1  0  0  0
  6 26  2  0  0  0
  7 25  1  0  0  0
  7  8  1  0  0  0
  8  9  1  0  0  0
  8 33  1  0  0  0
  8 34  1  0  0  0
  9 10  1  0  0  0
  9 35  1  0  0  0
  9 36  1  0  0  0
 10 11  1  0  0  0
 10 24  1  0  0  0
 11 12  2  0  0  0
 11 13  1  0  0  0
 13 23  1  0  0  0
 13 14  2  0  0  0
 14 15  1  0  0  0
 14 37  1  0  0  0
 15 16  2  0  0  0
 15 17  1  0  0  0
 17 18  1  0  0  0
 17 38  1  0  0  0
 18 23  2  0  0  0
 18 19  1  0  0  0
 19 20  2  0  0  0
 19 39  1  0  0  0
 20 21  1  0  0  0
 20 40  1  0  0  0
 21 22  2  0  0  0
 21 41  1  0  0  0
 22 23  1  0  0  0
 22 42  1  0  0  0
 24 25  1  0  0  0
 24 43  1  0  0  0
 24 44  1  0  0  0
 25 45  1  0  0  0
 25 46  1  0  0  0
 26 27  1  0  0  0
 26 47  1  0  0  0
 27 48  1  0  0  0
M  END
> <r_i_docking_score>
-5.88859393194147

$$$$
ligprep_5.maegz:436
                    3D
 Schrodinger Suite 2020-4.
 48 51  0  0  1  0            999 V2000
    9.3681    6.1420   23.6631 C   0  0  0  0  0  0
   10.7699    6.2629   23.4507 O   0  0  0  0  0  0
   11.4954    5.1399   23.1081 C   0  0  0  0  0  0
   12.8163    5.3494   22.7235 C   0  0  0  0  0  0
   13.6144    4.2866   22.3216 C   0  0  0  0  0  0
   13.1075    2.9903   22.3270 C   0  0  0  0  0  0
   11.7887    2.7340   22.7267 C   0  0  0  0  0  0
   11.2835    1.4324   22.7076 N   0  0  0  0  0  0
   12.0843    0.2852   23.1786 C   0  0  0  0  0  0
   11.6720   -1.1035   22.6305 C   0  0  0  0  0  0
   10.2185   -1.2599   22.7652 N   0  0  0  0  0  0
    9.6851   -2.2692   23.5107 C   0  0  0  0  0  0
   10.3690   -3.0787   24.1369 O   0  0  0  0  0  0
    8.2392   -2.3489   23.5813 C   0  0  0  0  0  0
    7.5954   -2.9956   22.5675 C   0  0  0  0  0  0
    6.1512   -3.0911   22.4261 C   0  0  0  0  0  0
    5.5694   -3.6537   21.5030 O   0  0  0  0  0  0
    5.4699   -2.4757   23.4144 N   0  0  0  0  0  0
    6.0155   -1.7864   24.5065 C   0  0  0  0  0  0
    5.1760   -1.1906   25.4473 C   0  0  0  0  0  0
    5.7280   -0.5032   26.5296 C   0  0  0  0  0  0
    7.1137   -0.4125   26.6705 C   0  0  0  0  0  0
    7.9562   -1.0068   25.7301 C   0  0  0  0  0  0
    7.4135   -1.6982   24.6373 C   0  0  0  0  0  0
    9.4268   -0.2074   22.1109 C   0  0  0  0  0  0
    9.8364    1.1586   22.6994 C   0  0  0  0  0  0
   10.9927    3.8281   23.1083 C   0  0  0  0  0  0
    8.9465    7.1295   23.8485 H   0  0  0  0  0  0
    8.8649    5.7289   22.7871 H   0  0  0  0  0  0
    9.1468    5.5199   24.5314 H   0  0  0  0  0  0
   13.2268    6.3471   22.7249 H   0  0  0  0  0  0
   14.6328    4.4665   22.0103 H   0  0  0  0  0  0
   13.7511    2.1908   21.9922 H   0  0  0  0  0  0
   13.1519    0.4362   23.0277 H   0  0  0  0  0  0
   11.9171    0.2603   24.2566 H   0  0  0  0  0  0
   12.2339   -1.8942   23.1296 H   0  0  0  0  0  0
   11.9312   -1.1662   21.5727 H   0  0  0  0  0  0
    8.1639   -3.4627   21.7740 H   0  0  0  0  0  0
    4.4715   -2.5284   23.3096 H   0  0  0  0  0  0
    4.1033   -1.2525   25.3404 H   0  0  0  0  0  0
    5.0816   -0.0370   27.2591 H   0  0  0  0  0  0
    7.5395    0.1244   27.5069 H   0  0  0  0  0  0
    9.0266   -0.9222   25.8558 H   0  0  0  0  0  0
    9.6451   -0.2253   21.0449 H   0  0  0  0  0  0
    8.3484   -0.3374   22.1979 H   0  0  0  0  0  0
    9.3005    1.9449   22.1664 H   0  0  0  0  0  0
    9.5190    1.1781   23.7436 H   0  0  0  0  0  0
    9.9740    3.6556   23.4137 H   0  0  0  0  0  0
  1  2  1  0  0  0
  1 28  1  0  0  0
  1 29  1  0  0  0
  1 30  1  0  0  0
  2  3  1  0  0  0
  3 27  2  0  0  0
  3  4  1  0  0  0
  4  5  2  0  0  0
  4 31  1  0  0  0
  5  6  1  0  0  0
  5 32  1  0  0  0
  6  7  2  0  0  0
  6 33  1  0  0  0
  7  8  1  0  0  0
  7 27  1  0  0  0
  8 26  1  0  0  0
  8  9  1  0  0  0
  9 10  1  0  0  0
  9 34  1  0  0  0
  9 35  1  0  0  0
 10 11  1  0  0  0
 10 36  1  0  0  0
 10 37  1  0  0  0
 11 12  1  0  0  0
 11 25  1  0  0  0
 12 13  2  0  0  0
 12 14  1  0  0  0
 14 24  1  0  0  0
 14 15  2  0  0  0
 15 16  1  0  0  0
 15 38  1  0  0  0
 16 17  2  0  0  0
 16 18  1  0  0  0
 18 19  1  0  0  0
 18 39  1  0  0  0
 19 24  2  0  0  0
 19 20  1  0  0  0
 20 21  2  0  0  0
 20 40  1  0  0  0
 21 22  1  0  0  0
 21 41  1  0  0  0
 22 23  2  0  0  0
 22 42  1  0  0  0
 23 24  1  0  0  0
 23 43  1  0  0  0
 25 26  1  0  0  0
 25 44  1  0  0  0
 25 45  1  0  0  0
 26 46  1  0  0  0
 26 47  1  0  0  0
 27 48  1  0  0  0
M  END
> <r_i_docking_score>
-6.67877340120363

$$$$
ligprep_5.maegz:437
                    3D
 Schrodinger Suite 2020-4.
 48 51  0  0  1  0            999 V2000
    9.0380   -4.3780   25.6653 C   0  0  0  0  0  0
    8.5691   -3.4825   24.6597 O   0  0  0  0  0  0
    7.7689   -3.9575   23.6300 C   0  0  0  0  0  0
    7.4586   -5.3201   23.4844 C   0  0  0  0  0  0
    6.6716   -5.7727   22.4285 C   0  0  0  0  0  0
    6.1745   -4.8650   21.5020 C   0  0  0  0  0  0
    6.4719   -3.5095   21.6268 C   0  0  0  0  0  0
    7.2831   -3.0405   22.6715 C   0  0  0  0  0  0
    7.5615   -1.6802   22.7733 N   0  0  0  0  0  0
    7.7736   -0.8228   21.5965 C   0  0  0  0  0  0
    8.7120    0.3922   21.8715 C   0  0  0  0  0  0
    8.6101    0.8286   23.2848 N   0  0  0  0  0  0
    9.5948    1.4602   23.9905 C   0  0  0  0  0  0
    9.3953    1.9388   25.1081 O   0  0  0  0  0  0
   10.9172    1.5992   23.4011 C   0  0  0  0  0  0
   11.6403    0.4634   23.1773 C   0  0  0  0  0  0
   12.9661    0.4174   22.5868 C   0  0  0  0  0  0
   13.5717   -0.6098   22.3079 O   0  0  0  0  0  0
   13.4754    1.6331   22.3084 N   0  0  0  0  0  0
   12.8734    2.8713   22.5668 C   0  0  0  0  0  0
   13.5696    4.0504   22.3087 C   0  0  0  0  0  0
   12.9800    5.2806   22.5887 C   0  0  0  0  0  0
   11.6890    5.3330   23.1143 C   0  0  0  0  0  0
   10.9869    4.1534   23.3711 C   0  0  0  0  0  0
   11.5743    2.9076   23.1052 C   0  0  0  0  0  0
    7.2972    0.6093   23.9096 C   0  0  0  0  0  0
    6.9949   -0.9123   23.8997 C   0  0  0  0  0  0
    9.5690   -3.8162   26.4317 H   0  0  0  0  0  0
    8.2165   -4.8963   26.1606 H   0  0  0  0  0  0
    9.7303   -5.1137   25.2524 H   0  0  0  0  0  0
    7.8402   -6.0527   24.1763 H   0  0  0  0  0  0
    6.4509   -6.8263   22.3271 H   0  0  0  0  0  0
    5.5699   -5.2170   20.6799 H   0  0  0  0  0  0
    6.0805   -2.8200   20.8926 H   0  0  0  0  0  0
    8.1362   -1.4054   20.7475 H   0  0  0  0  0  0
    6.7818   -0.4476   21.3349 H   0  0  0  0  0  0
    8.5100    1.1959   21.1594 H   0  0  0  0  0  0
    9.7061   -0.0249   21.7038 H   0  0  0  0  0  0
   11.2261   -0.5048   23.4235 H   0  0  0  0  0  0
   14.3815    1.6013   21.8708 H   0  0  0  0  0  0
   14.5719    4.0171   21.9104 H   0  0  0  0  0  0
   13.5274    6.1921   22.4024 H   0  0  0  0  0  0
   11.2303    6.2880   23.3243 H   0  0  0  0  0  0
    9.9908    4.2178   23.7853 H   0  0  0  0  0  0
    7.1593    1.0609   24.8920 H   0  0  0  0  0  0
    6.5818    1.1145   23.2598 H   0  0  0  0  0  0
    7.4641   -1.3139   24.7976 H   0  0  0  0  0  0
    5.9136   -1.0537   23.9353 H   0  0  0  0  0  0
  1  2  1  0  0  0
  1 28  1  0  0  0
  1 29  1  0  0  0
  1 30  1  0  0  0
  2  3  1  0  0  0
  3  8  2  0  0  0
  3  4  1  0  0  0
  4  5  2  0  0  0
  4 31  1  0  0  0
  5  6  1  0  0  0
  5 32  1  0  0  0
  6  7  2  0  0  0
  6 33  1  0  0  0
  7  8  1  0  0  0
  7 34  1  0  0  0
  8  9  1  0  0  0
  9 27  1  0  0  0
  9 10  1  0  0  0
 10 11  1  0  0  0
 10 35  1  0  0  0
 10 36  1  0  0  0
 11 12  1  0  0  0
 11 37  1  0  0  0
 11 38  1  0  0  0
 12 13  1  0  0  0
 12 26  1  0  0  0
 13 14  2  0  0  0
 13 15  1  0  0  0
 15 25  1  0  0  0
 15 16  2  0  0  0
 16 17  1  0  0  0
 16 39  1  0  0  0
 17 18  2  0  0  0
 17 19  1  0  0  0
 19 20  1  0  0  0
 19 40  1  0  0  0
 20 25  2  0  0  0
 20 21  1  0  0  0
 21 22  2  0  0  0
 21 41  1  0  0  0
 22 23  1  0  0  0
 22 42  1  0  0  0
 23 24  2  0  0  0
 23 43  1  0  0  0
 24 25  1  0  0  0
 24 44  1  0  0  0
 26 27  1  0  0  0
 26 45  1  0  0  0
 26 46  1  0  0  0
 27 47  1  0  0  0
 27 48  1  0  0  0
M  END
> <r_i_docking_score>
-6.6328938146371

$$$$
ligprep_5.maegz:438
                    3D
 Schrodinger Suite 2020-4.
 44 47  0  0  1  0            999 V2000
   13.5695    0.4631   23.1079 O   0  0  0  0  0  0
   12.4174    0.8561   22.9085 C   0  0  0  0  0  0
   12.1135    2.2849   23.0043 C   0  0  0  0  0  0
   12.9766    3.1387   22.3757 C   0  0  0  0  0  0
   12.8729    4.5886   22.3611 C   0  0  0  0  0  0
   13.7135    5.3559   21.9079 O   0  0  0  0  0  0
   11.7540    5.0550   22.9444 N   0  0  0  0  0  0
   10.7907    4.3011   23.6215 C   0  0  0  0  0  0
    9.7134    4.9460   24.2276 C   0  0  0  0  0  0
    8.7850    4.2037   24.9566 C   0  0  0  0  0  0
    8.9577    2.8283   25.1079 C   0  0  0  0  0  0
   10.0466    2.1861   24.5177 C   0  0  0  0  0  0
   10.9527    2.9053   23.7261 C   0  0  0  0  0  0
   11.4234   -0.0231   22.5867 N   0  0  0  0  0  0
   11.6936   -1.4681   22.5993 C   0  0  0  0  0  0
   10.5124   -2.1828   23.2827 C   0  0  0  0  0  0
    9.1949   -1.8875   22.6993 N   0  0  0  0  0  0
    8.1256   -2.7823   22.7611 C   0  0  0  0  0  0
    7.0260   -2.6192   21.9078 C   0  0  0  0  0  0
    5.9759   -3.5284   21.9119 C   0  0  0  0  0  0
    6.0021   -4.6144   22.7788 C   0  0  0  0  0  0
    4.9792   -5.4981   22.7763 F   0  0  0  0  0  0
    7.0765   -4.7943   23.6439 C   0  0  0  0  0  0
    8.1317   -3.8841   23.6329 C   0  0  0  0  0  0
    8.9782   -0.4414   22.5116 C   0  0  0  0  0  0
   10.1660    0.3507   21.9218 C   0  0  0  0  0  0
   13.8359    2.7494   21.8452 H   0  0  0  0  0  0
   11.6773    6.0567   22.9188 H   0  0  0  0  0  0
    9.5893    6.0149   24.1350 H   0  0  0  0  0  0
    7.9435    4.6966   25.4219 H   0  0  0  0  0  0
    8.2566    2.2591   25.7017 H   0  0  0  0  0  0
   10.1779    1.1274   24.6817 H   0  0  0  0  0  0
   11.7801   -1.8340   21.5745 H   0  0  0  0  0  0
   12.6221   -1.7286   23.1079 H   0  0  0  0  0  0
   10.4718   -1.8601   24.3239 H   0  0  0  0  0  0
   10.7080   -3.2529   23.2780 H   0  0  0  0  0  0
    6.9878   -1.8124   21.1923 H   0  0  0  0  0  0
    5.1573   -3.3861   21.2304 H   0  0  0  0  0  0
    7.0930   -5.6383   24.3174 H   0  0  0  0  0  0
    8.9522   -4.0475   24.3146 H   0  0  0  0  0  0
    8.7849   -0.0613   23.5137 H   0  0  0  0  0  0
    8.0901   -0.2278   21.9205 H   0  0  0  0  0  0
    9.9588    1.4194   21.8995 H   0  0  0  0  0  0
   10.2580    0.0297   20.8889 H   0  0  0  0  0  0
  1  2  2  0  0  0
  2  3  1  0  0  0
  2 14  1  0  0  0
  3 13  1  0  0  0
  3  4  2  0  0  0
  4  5  1  0  0  0
  4 27  1  0  0  0
  5  6  2  0  0  0
  5  7  1  0  0  0
  7  8  1  0  0  0
  7 28  1  0  0  0
  8 13  2  0  0  0
  8  9  1  0  0  0
  9 10  2  0  0  0
  9 29  1  0  0  0
 10 11  1  0  0  0
 10 30  1  0  0  0
 11 12  2  0  0  0
 11 31  1  0  0  0
 12 13  1  0  0  0
 12 32  1  0  0  0
 14 26  1  0  0  0
 14 15  1  0  0  0
 15 16  1  0  0  0
 15 33  1  0  0  0
 15 34  1  0  0  0
 16 17  1  0  0  0
 16 35  1  0  0  0
 16 36  1  0  0  0
 17 18  1  0  0  0
 17 25  1  0  0  0
 18 24  2  0  0  0
 18 19  1  0  0  0
 19 20  2  0  0  0
 19 37  1  0  0  0
 20 21  1  0  0  0
 20 38  1  0  0  0
 21 22  1  0  0  0
 21 23  2  0  0  0
 23 24  1  0  0  0
 23 39  1  0  0  0
 24 40  1  0  0  0
 25 26  1  0  0  0
 25 41  1  0  0  0
 25 42  1  0  0  0
 26 43  1  0  0  0
 26 44  1  0  0  0
M  END
> <r_i_docking_score>
-6.68090405159686

$$$$
ligprep_5.maegz:439
                    3D
 Schrodinger Suite 2020-4.
 44 47  0  0  1  0            999 V2000
    9.3633    1.7426   25.1077 O   0  0  0  0  0  0
    9.5837    1.3186   23.9716 C   0  0  0  0  0  0
   10.9217    1.4646   23.4177 C   0  0  0  0  0  0
   11.6514    0.3321   23.2016 C   0  0  0  0  0  0
   12.9702    0.2893   22.5949 C   0  0  0  0  0  0
   13.5713   -0.7385   22.3072 O   0  0  0  0  0  0
   13.4763    1.5046   22.3088 N   0  0  0  0  0  0
   12.8731    2.7407   22.5726 C   0  0  0  0  0  0
   13.5678    3.9187   22.3080 C   0  0  0  0  0  0
   12.9753    5.1485   22.5842 C   0  0  0  0  0  0
   11.6872    5.1992   23.1159 C   0  0  0  0  0  0
   10.9873    4.0199   23.3803 C   0  0  0  0  0  0
   11.5747    2.7749   23.1147 C   0  0  0  0  0  0
    8.6085    0.7507   23.2007 N   0  0  0  0  0  0
    7.2465    0.5913   23.7391 C   0  0  0  0  0  0
    6.8480   -0.9095   23.6865 C   0  0  0  0  0  0
    7.4976   -1.7121   22.6360 N   0  0  0  0  0  0
    7.2224   -3.0672   22.5329 C   0  0  0  0  0  0
    6.3836   -3.5577   21.5212 C   0  0  0  0  0  0
    6.1643   -4.9295   21.3877 C   0  0  0  0  0  0
    6.7479   -5.8239   22.2812 C   0  0  0  0  0  0
    7.5691   -5.3468   23.2994 C   0  0  0  0  0  0
    7.8161   -3.9787   23.4218 C   0  0  0  0  0  0
    8.6443   -3.5511   24.4055 F   0  0  0  0  0  0
    7.8520   -0.8940   21.4679 C   0  0  0  0  0  0
    8.7790    0.3141   21.7928 C   0  0  0  0  0  0
   11.2352   -0.6374   23.4441 H   0  0  0  0  0  0
   14.3785    1.4757   21.8635 H   0  0  0  0  0  0
   14.5703    3.8830   21.9087 H   0  0  0  0  0  0
   13.5190    6.0624   22.3926 H   0  0  0  0  0  0
   11.2271    6.1534   23.3252 H   0  0  0  0  0  0
    9.9930    4.0810   23.7988 H   0  0  0  0  0  0
    7.0657    1.0454   24.7148 H   0  0  0  0  0  0
    6.6090    1.1420   23.0440 H   0  0  0  0  0  0
    5.7624   -0.9782   23.5930 H   0  0  0  0  0  0
    7.1833   -1.3468   24.6288 H   0  0  0  0  0  0
    5.9352   -2.8739   20.8146 H   0  0  0  0  0  0
    5.5652   -5.3064   20.5762 H   0  0  0  0  0  0
    6.5745   -6.8854   22.1764 H   0  0  0  0  0  0
    8.0342   -6.0421   23.9839 H   0  0  0  0  0  0
    6.9018   -0.5106   21.0894 H   0  0  0  0  0  0
    8.2822   -1.5101   20.6762 H   0  0  0  0  0  0
    8.6189    1.1176   21.0721 H   0  0  0  0  0  0
    9.7742   -0.1075   21.6764 H   0  0  0  0  0  0
  1  2  2  0  0  0
  2  3  1  0  0  0
  2 14  1  0  0  0
  3 13  1  0  0  0
  3  4  2  0  0  0
  4  5  1  0  0  0
  4 27  1  0  0  0
  5  6  2  0  0  0
  5  7  1  0  0  0
  7  8  1  0  0  0
  7 28  1  0  0  0
  8 13  2  0  0  0
  8  9  1  0  0  0
  9 10  2  0  0  0
  9 29  1  0  0  0
 10 11  1  0  0  0
 10 30  1  0  0  0
 11 12  2  0  0  0
 11 31  1  0  0  0
 12 13  1  0  0  0
 12 32  1  0  0  0
 14 26  1  0  0  0
 14 15  1  0  0  0
 15 16  1  0  0  0
 15 33  1  0  0  0
 15 34  1  0  0  0
 16 17  1  0  0  0
 16 35  1  0  0  0
 16 36  1  0  0  0
 17 18  1  0  0  0
 17 25  1  0  0  0
 18 23  2  0  0  0
 18 19  1  0  0  0
 19 20  2  0  0  0
 19 37  1  0  0  0
 20 21  1  0  0  0
 20 38  1  0  0  0
 21 22  2  0  0  0
 21 39  1  0  0  0
 22 23  1  0  0  0
 22 40  1  0  0  0
 23 24  1  0  0  0
 25 26  1  0  0  0
 25 41  1  0  0  0
 25 42  1  0  0  0
 26 43  1  0  0  0
 26 44  1  0  0  0
M  END
> <r_i_docking_score>
-6.62518537612011

$$$$
ligprep_5.maegz:440
                    3D
 Schrodinger Suite 2020-4.
 34 35  0  0  1  0            999 V2000
    5.9694    1.3768   22.3346 C   0  0  0  0  0  0
    5.8893    1.1947   20.8241 C   0  0  0  0  0  0
    5.1690    2.1341   20.0805 C   0  0  0  0  0  0
    5.0335    1.9468   18.7078 C   0  0  0  0  0  0
    5.5697    0.8907   18.0465 N   0  0  0  0  0  0
    6.2636   -0.0212   18.7701 C   0  0  0  0  0  0
    6.4582    0.0901   20.1504 C   0  0  0  0  0  0
    7.1679   -0.9321   20.7933 N   0  0  0  0  0  0
    8.2758   -0.7616   21.5382 C   0  0  0  0  0  0
    8.8563    0.3195   21.6534 O   0  0  0  0  0  0
    8.7938   -2.0250   22.2486 C   0  0  0  0  0  0
    9.7220   -1.7811   23.4679 C   0  0  0  0  0  0
   11.0595   -1.1491   23.1096 C   0  0  0  0  0  0
   11.3794    0.1475   23.5302 C   0  0  0  0  0  0
   12.5773    0.7408   23.1272 C   0  0  0  0  0  0
   13.4606    0.0352   22.3105 C   0  0  0  0  0  0
   13.1496   -1.2633   21.9081 C   0  0  0  0  0  0
   13.9695   -1.9369   21.0757 F   0  0  0  0  0  0
   11.9582   -1.8553   22.3087 C   0  0  0  0  0  0
    6.8953    1.8792   22.6150 H   0  0  0  0  0  0
    5.1256    1.9596   22.7065 H   0  0  0  0  0  0
    5.9213    0.4156   22.8460 H   0  0  0  0  0  0
    4.7239    3.0010   20.5482 H   0  0  0  0  0  0
    4.4964    2.6694   18.1081 H   0  0  0  0  0  0
    6.6781   -0.8468   18.2081 H   0  0  0  0  0  0
    6.8943   -1.8765   20.5710 H   0  0  0  0  0  0
    7.9424   -2.6252   22.5720 H   0  0  0  0  0  0
    9.3195   -2.6230   21.5037 H   0  0  0  0  0  0
    9.2068   -1.1828   24.2217 H   0  0  0  0  0  0
    9.9319   -2.7346   23.9553 H   0  0  0  0  0  0
   10.6861    0.7086   24.1397 H   0  0  0  0  0  0
   12.8125    1.7501   23.4329 H   0  0  0  0  0  0
   14.3695    0.5041   21.9690 H   0  0  0  0  0  0
   11.7221   -2.8517   21.9630 H   0  0  0  0  0  0
  1  2  1  0  0  0
  1 20  1  0  0  0
  1 21  1  0  0  0
  1 22  1  0  0  0
  2  7  2  0  0  0
  2  3  1  0  0  0
  3  4  2  0  0  0
  3 23  1  0  0  0
  4  5  1  0  0  0
  4 24  1  0  0  0
  5  6  2  0  0  0
  6  7  1  0  0  0
  6 25  1  0  0  0
  7  8  1  0  0  0
  8  9  1  0  0  0
  8 26  1  0  0  0
  9 10  2  0  0  0
  9 11  1  0  0  0
 11 12  1  0  0  0
 11 27  1  0  0  0
 11 28  1  0  0  0
 12 13  1  0  0  0
 12 29  1  0  0  0
 12 30  1  0  0  0
 13 19  2  0  0  0
 13 14  1  0  0  0
 14 15  2  0  0  0
 14 31  1  0  0  0
 15 16  1  0  0  0
 15 32  1  0  0  0
 16 17  2  0  0  0
 16 33  1  0  0  0
 17 18  1  0  0  0
 17 19  1  0  0  0
 19 34  1  0  0  0
M  END
> <r_i_docking_score>
-6.24090611056629

$$$$
ligprep_5.maegz:441
                    3D
 Schrodinger Suite 2020-4.
 40 41  0  0  1  0            999 V2000
    6.4184   -5.5407   22.7528 C   0  0  0  0  0  0
    6.4191   -4.2270   21.9633 C   0  0  0  0  0  0
    5.5698   -4.1021   21.0803 O   0  0  0  0  0  0
    7.2561   -3.2198   22.3267 N   0  0  0  0  0  0
    8.3860   -3.4559   23.2516 C   0  0  0  0  0  0
    8.6543   -2.1774   24.0783 C   0  0  0  0  0  0
    8.8192   -1.0029   23.2192 N   0  0  0  0  0  0
    9.2123    0.1880   23.9963 C   0  0  0  0  0  0
   10.0223    1.2006   23.1497 C   0  0  0  0  0  0
   10.0811    1.1297   21.9173 O   0  0  0  0  0  0
   10.6351    2.1656   23.8647 N   0  0  0  0  0  0
   11.5102    3.1300   23.3453 C   0  0  0  0  0  0
   11.1727    4.4786   23.5047 C   0  0  0  0  0  0
   11.9682    5.4975   23.0914 N   0  0  0  0  0  0
   13.1476    5.1772   22.5040 C   0  0  0  0  0  0
   13.5694    3.8620   22.3189 C   0  0  0  0  0  0
   12.7479    2.8135   22.7447 C   0  0  0  0  0  0
   13.2666    1.3839   22.6376 C   0  0  0  0  0  0
    7.5897   -0.7723   22.4501 C   0  0  0  0  0  0
    7.2539   -1.9689   21.5339 C   0  0  0  0  0  0
    7.3796   -6.0481   22.6598 H   0  0  0  0  0  0
    6.2100   -5.3581   23.8071 H   0  0  0  0  0  0
    5.6502   -6.2157   22.3724 H   0  0  0  0  0  0
    9.2889   -3.6520   22.6735 H   0  0  0  0  0  0
    8.2130   -4.2653   23.9603 H   0  0  0  0  0  0
    9.5465   -2.3265   24.6881 H   0  0  0  0  0  0
    7.8152   -1.9944   24.7526 H   0  0  0  0  0  0
    9.8602   -0.1051   24.8260 H   0  0  0  0  0  0
    8.3435    0.6797   24.4395 H   0  0  0  0  0  0
   10.3729    2.2685   24.8329 H   0  0  0  0  0  0
   10.2397    4.7678   23.9660 H   0  0  0  0  0  0
   13.7788    6.0022   22.2085 H   0  0  0  0  0  0
   14.5461    3.6604   21.9080 H   0  0  0  0  0  0
   13.1689    0.8788   23.5985 H   0  0  0  0  0  0
   12.6961    0.8127   21.9080 H   0  0  0  0  0  0
   14.3196    1.3491   22.3567 H   0  0  0  0  0  0
    6.7702   -0.6235   23.1559 H   0  0  0  0  0  0
    7.6718    0.1344   21.8494 H   0  0  0  0  0  0
    6.2907   -1.7648   21.0618 H   0  0  0  0  0  0
    8.0351   -2.0185   20.7744 H   0  0  0  0  0  0
  1  2  1  0  0  0
  1 21  1  0  0  0
  1 22  1  0  0  0
  1 23  1  0  0  0
  2  3  2  0  0  0
  2  4  1  0  0  0
  4 20  1  0  0  0
  4  5  1  0  0  0
  5  6  1  0  0  0
  5 24  1  0  0  0
  5 25  1  0  0  0
  6  7  1  0  0  0
  6 26  1  0  0  0
  6 27  1  0  0  0
  7  8  1  0  0  0
  7 19  1  0  0  0
  8  9  1  0  0  0
  8 28  1  0  0  0
  8 29  1  0  0  0
  9 10  2  0  0  0
  9 11  1  0  0  0
 11 12  1  0  0  0
 11 30  1  0  0  0
 12 17  2  0  0  0
 12 13  1  0  0  0
 13 14  2  0  0  0
 13 31  1  0  0  0
 14 15  1  0  0  0
 15 16  2  0  0  0
 15 32  1  0  0  0
 16 17  1  0  0  0
 16 33  1  0  0  0
 17 18  1  0  0  0
 18 34  1  0  0  0
 18 35  1  0  0  0
 18 36  1  0  0  0
 19 20  1  0  0  0
 19 37  1  0  0  0
 19 38  1  0  0  0
 20 39  1  0  0  0
 20 40  1  0  0  0
M  END
> <r_i_docking_score>
-6.0643003740525

$$$$
ligprep_5.maegz:442
                    3D
 Schrodinger Suite 2020-4.
 38 40  0  0  1  0            999 V2000
    6.2981   -2.3222   25.0647 C   0  0  0  0  0  0
    7.2156   -3.4182   25.5916 C   0  0  0  0  0  0
    6.7770   -4.1959   26.6700 C   0  0  0  0  0  0
    7.5758   -5.2475   27.1158 C   0  0  0  0  0  0
    8.7686   -5.5530   26.5529 N   0  0  0  0  0  0
    9.1963   -4.7941   25.5128 C   0  0  0  0  0  0
    8.4622   -3.7193   24.9991 C   0  0  0  0  0  0
    8.9776   -3.0410   23.8817 N   0  0  0  0  0  0
    9.2692   -1.7249   23.8298 C   0  0  0  0  0  0
    9.2149   -0.9724   24.8028 O   0  0  0  0  0  0
    9.6738   -1.1707   22.4585 C   0  0  0  0  0  0
   11.0207   -0.4596   22.4874 C   0  0  0  0  0  0
   12.1921   -1.1984   22.3045 C   0  0  0  0  0  0
   13.4276   -0.5568   22.3080 C   0  0  0  0  0  0
   13.4974    0.8227   22.5008 C   0  0  0  0  0  0
   12.3380    1.5792   22.7081 C   0  0  0  0  0  0
   12.4368    3.0607   22.9030 C   0  0  0  0  0  0
   11.4721    3.9644   23.3863 C   0  0  0  0  0  0
   11.9088    5.2007   23.5005 N   0  0  0  0  0  0
   13.1677    5.1413   23.0672 N   0  0  0  0  0  0
   13.5302    3.8867   22.6693 C   0  0  0  0  0  0
   11.1000    0.9219   22.7080 C   0  0  0  0  0  0
    6.6538   -1.3408   25.3831 H   0  0  0  0  0  0
    6.2729   -2.3397   23.9736 H   0  0  0  0  0  0
    5.2687   -2.4503   25.4082 H   0  0  0  0  0  0
    5.8270   -4.0028   27.1436 H   0  0  0  0  0  0
    7.2623   -5.8759   27.9371 H   0  0  0  0  0  0
   10.1594   -5.0670   25.1074 H   0  0  0  0  0  0
    9.2224   -3.6078   23.0831 H   0  0  0  0  0  0
    9.6996   -1.9627   21.7071 H   0  0  0  0  0  0
    8.8967   -0.4733   22.1394 H   0  0  0  0  0  0
   12.1456   -2.2665   22.1481 H   0  0  0  0  0  0
   14.3282   -1.1325   22.1572 H   0  0  0  0  0  0
   14.4625    1.3044   22.4841 H   0  0  0  0  0  0
   10.4632    3.7099   23.6783 H   0  0  0  0  0  0
   13.7794    5.9484   23.0756 H   0  0  0  0  0  0
   14.5282    3.6856   22.3080 H   0  0  0  0  0  0
   10.1913    1.4870   22.8585 H   0  0  0  0  0  0
  1  2  1  0  0  0
  1 23  1  0  0  0
  1 24  1  0  0  0
  1 25  1  0  0  0
  2  7  2  0  0  0
  2  3  1  0  0  0
  3  4  2  0  0  0
  3 26  1  0  0  0
  4  5  1  0  0  0
  4 27  1  0  0  0
  5  6  2  0  0  0
  6  7  1  0  0  0
  6 28  1  0  0  0
  7  8  1  0  0  0
  8  9  1  0  0  0
  8 29  1  0  0  0
  9 10  2  0  0  0
  9 11  1  0  0  0
 11 12  1  0  0  0
 11 30  1  0  0  0
 11 31  1  0  0  0
 12 22  2  0  0  0
 12 13  1  0  0  0
 13 14  2  0  0  0
 13 32  1  0  0  0
 14 15  1  0  0  0
 14 33  1  0  0  0
 15 16  2  0  0  0
 15 34  1  0  0  0
 16 17  1  0  0  0
 16 22  1  0  0  0
 17 21  2  0  0  0
 17 18  1  0  0  0
 18 19  2  0  0  0
 18 35  1  0  0  0
 19 20  1  0  0  0
 20 21  1  0  0  0
 20 36  1  0  0  0
 21 37  1  0  0  0
 22 38  1  0  0  0
M  END
> <r_i_docking_score>
-6.20998658276462

$$$$
ligprep_5.maegz:443
                    3D
 Schrodinger Suite 2020-4.
 35 37  0  0  1  0            999 V2000
   11.8579    2.2884   23.3972 C   0  0  0  0  0  0
   12.0033    0.8384   22.9537 C   0  0  0  0  0  0
   13.2821    0.3325   22.7066 C   0  0  0  0  0  0
   13.4123   -0.9975   22.3061 C   0  0  0  0  0  0
   12.3664   -1.8449   22.1738 N   0  0  0  0  0  0
   11.1308   -1.3512   22.4130 C   0  0  0  0  0  0
   10.8957   -0.0213   22.7836 C   0  0  0  0  0  0
    9.5645    0.3931   22.9102 N   0  0  0  0  0  0
    8.6298   -0.1818   23.8807 C   0  0  0  0  0  0
    7.2634    0.0563   23.2729 C   0  0  0  0  0  0
    7.4728    1.2238   22.3262 C   0  0  2  0  0  0
    6.6095    1.1882   21.0611 C   0  0  0  0  0  0
    6.9563    0.3992   19.9492 C   0  0  0  0  0  0
    6.1585    0.3937   18.8080 C   0  0  0  0  0  0
    4.9886    1.1469   18.7846 C   0  0  0  0  0  0
    4.6046    1.8921   19.8981 C   0  0  0  0  0  0
    3.1072    2.7480   19.8960 Cl  0  0  0  0  0  0
    5.4202    1.9234   21.0273 C   0  0  0  0  0  0
    8.9753    1.2386   22.0271 C   0  0  0  0  0  0
    9.5029    1.8674   21.1081 O   0  0  0  0  0  0
   11.2804    2.8657   22.6742 H   0  0  0  0  0  0
   11.3323    2.3381   24.3530 H   0  0  0  0  0  0
   12.8257    2.7801   23.5076 H   0  0  0  0  0  0
   14.1575    0.9565   22.8038 H   0  0  0  0  0  0
   14.3716   -1.4286   22.0894 H   0  0  0  0  0  0
   10.3158   -2.0422   22.2515 H   0  0  0  0  0  0
    8.8079   -1.2464   24.0423 H   0  0  0  0  0  0
    8.7295    0.3376   24.8350 H   0  0  0  0  0  0
    6.9560   -0.8315   22.7163 H   0  0  0  0  0  0
    6.4958    0.2402   24.0253 H   0  0  0  0  0  0
    7.2772    2.1604   22.8505 H   0  0  0  0  0  0
    7.8528   -0.2025   19.9548 H   0  0  0  0  0  0
    6.4417   -0.1952   17.9474 H   0  0  0  0  0  0
    4.3683    1.1333   17.9080 H   0  0  0  0  0  0
    5.1156    2.5100   21.8816 H   0  0  0  0  0  0
  1  2  1  0  0  0
  1 21  1  0  0  0
  1 22  1  0  0  0
  1 23  1  0  0  0
  2  7  2  0  0  0
  2  3  1  0  0  0
  3  4  2  0  0  0
  3 24  1  0  0  0
  4  5  1  0  0  0
  4 25  1  0  0  0
  5  6  2  0  0  0
  6  7  1  0  0  0
  6 26  1  0  0  0
  7  8  1  0  0  0
  8 19  1  0  0  0
  8  9  1  0  0  0
  9 10  1  0  0  0
  9 27  1  0  0  0
  9 28  1  0  0  0
 10 11  1  0  0  0
 10 29  1  0  0  0
 10 30  1  0  0  0
 11 12  1  0  0  0
 11 19  1  0  0  0
 11 31  1  0  0  0
 12 18  2  0  0  0
 12 13  1  0  0  0
 13 14  2  0  0  0
 13 32  1  0  0  0
 14 15  1  0  0  0
 14 33  1  0  0  0
 15 16  2  0  0  0
 15 34  1  0  0  0
 16 17  1  0  0  0
 16 18  1  0  0  0
 18 35  1  0  0  0
 19 20  2  0  0  0
M  END
> <r_i_docking_score>
-6.4546119207416

$$$$
ligprep_5.maegz:444
                    3D
 Schrodinger Suite 2020-4.
 28 29  0  0  1  0            999 V2000
    7.9442   -0.3555   22.9721 O   0  0  0  0  0  0
    8.4781   -0.9109   22.0132 C   0  0  0  0  0  0
    9.6842   -1.8291   22.2773 C   0  0  0  0  0  0
   11.0432   -1.1149   22.3030 C   0  0  0  0  0  0
   12.1872   -1.8238   21.9156 C   0  0  0  0  0  0
   13.4404   -1.2116   21.9079 C   0  0  0  0  0  0
   13.5672    0.1194   22.3079 C   0  0  0  0  0  0
   12.4378    0.8324   22.7085 C   0  0  0  0  0  0
   12.5637    2.5045   23.1057 Cl  0  0  0  0  0  0
   11.1897    0.2138   22.7298 C   0  0  0  0  0  0
    8.0951   -0.7734   20.7251 N   0  0  0  0  0  0
    7.0812    0.0437   20.1792 C   0  0  0  0  0  0
    6.3672    1.0342   20.8794 C   0  0  0  0  0  0
    5.4010    1.7936   20.2155 C   0  0  0  0  0  0
    5.1697    1.5470   18.8635 C   0  0  0  0  0  0
    5.8469    0.6036   18.1640 N   0  0  0  0  0  0
    6.7816   -0.1272   18.8238 C   0  0  0  0  0  0
    9.5408   -2.3220   23.2392 H   0  0  0  0  0  0
    9.7045   -2.6311   21.5371 H   0  0  0  0  0  0
   12.1011   -2.8528   21.5963 H   0  0  0  0  0  0
   14.3088   -1.7668   21.5890 H   0  0  0  0  0  0
   14.5269    0.6108   22.2803 H   0  0  0  0  0  0
   10.3326    0.7895   23.0488 H   0  0  0  0  0  0
    8.5878   -1.3438   20.0536 H   0  0  0  0  0  0
    6.5442    1.2437   21.9221 H   0  0  0  0  0  0
    4.8502    2.5642   20.7356 H   0  0  0  0  0  0
    4.4412    2.1235   18.3087 H   0  0  0  0  0  0
    7.2980   -0.8648   18.2273 H   0  0  0  0  0  0
  1  2  2  0  0  0
  2  3  1  0  0  0
  2 11  1  0  0  0
  3  4  1  0  0  0
  3 18  1  0  0  0
  3 19  1  0  0  0
  4 10  2  0  0  0
  4  5  1  0  0  0
  5  6  2  0  0  0
  5 20  1  0  0  0
  6  7  1  0  0  0
  6 21  1  0  0  0
  7  8  2  0  0  0
  7 22  1  0  0  0
  8  9  1  0  0  0
  8 10  1  0  0  0
 10 23  1  0  0  0
 11 12  1  0  0  0
 11 24  1  0  0  0
 12 17  2  0  0  0
 12 13  1  0  0  0
 13 14  2  0  0  0
 13 25  1  0  0  0
 14 15  1  0  0  0
 14 26  1  0  0  0
 15 16  2  0  0  0
 15 27  1  0  0  0
 16 17  1  0  0  0
 17 28  1  0  0  0
M  END
> <r_i_docking_score>
-6.29184912505197

$$$$
ligprep_5.maegz:445
                    3D
 Schrodinger Suite 2020-4.
 44 45  0  0  1  0            999 V2000
   11.4077   -2.2210   23.4353 C   0  0  0  0  0  0
   11.9113   -1.9327   22.0119 C   0  0  0  0  0  0
   13.3213   -1.3128   21.8998 C   0  0  0  0  0  0
   13.5024    0.0916   22.5248 C   0  0  0  0  0  0
   12.2362    0.7332   22.6711 O   0  0  0  0  0  0
   12.1348    2.0816   22.9504 C   0  0  0  0  0  0
   13.1695    2.9976   22.7073 C   0  0  0  0  0  0
   13.0450    4.3296   23.0947 C   0  0  0  0  0  0
   11.8820    4.7577   23.7236 C   0  0  0  0  0  0
   11.7701    6.3606   24.3233 Cl  0  0  0  0  0  0
   10.8170    3.8827   23.9024 C   0  0  0  0  0  0
   10.9227    2.5484   23.5026 C   0  0  0  0  0  0
    9.7046    1.6350   23.7067 C   0  0  0  0  0  0
    9.0523    1.2099   22.3818 C   0  0  0  0  0  0
    9.7519    0.7155   21.5080 O   0  0  0  0  0  0
    7.7286    1.4210   22.2286 N   0  0  0  0  0  0
    6.9707    1.1454   21.0696 C   0  0  0  0  0  0
    7.2278    0.0361   20.2412 C   0  0  0  0  0  0
    6.5483   -0.2143   19.0964 N   0  0  0  0  0  0
    5.5684    0.6504   18.7439 C   0  0  0  0  0  0
    5.2085    1.7504   19.5229 C   0  0  0  0  0  0
    5.9147    2.0011   20.7061 C   0  0  0  0  0  0
    5.5455    3.2192   21.5413 C   0  0  0  0  0  0
   10.3640   -2.5370   23.4114 H   0  0  0  0  0  0
   11.9694   -3.0242   23.9068 H   0  0  0  0  0  0
   11.4669   -1.3390   24.0733 H   0  0  0  0  0  0
   11.1976   -1.2875   21.5076 H   0  0  0  0  0  0
   11.8896   -2.8530   21.4403 H   0  0  0  0  0  0
   13.5677   -1.2534   20.8392 H   0  0  0  0  0  0
   14.0608   -1.9991   22.3077 H   0  0  0  0  0  0
   14.1950    0.6515   21.8960 H   0  0  0  0  0  0
   13.9660    0.0100   23.5082 H   0  0  0  0  0  0
   14.0997    2.6973   22.2529 H   0  0  0  0  0  0
   13.8642    5.0175   22.9419 H   0  0  0  0  0  0
    9.9102    4.2433   24.3645 H   0  0  0  0  0  0
    8.9745    2.0974   24.3728 H   0  0  0  0  0  0
   10.0321    0.7305   24.2189 H   0  0  0  0  0  0
    7.2462    1.9297   22.9507 H   0  0  0  0  0  0
    8.0007   -0.6803   20.4786 H   0  0  0  0  0  0
    5.0530    0.4385   17.8185 H   0  0  0  0  0  0
    4.4137    2.4090   19.2000 H   0  0  0  0  0  0
    6.3984    3.8952   21.6150 H   0  0  0  0  0  0
    4.7134    3.7786   21.1086 H   0  0  0  0  0  0
    5.2673    2.9195   22.5515 H   0  0  0  0  0  0
  1  2  1  0  0  0
  1 24  1  0  0  0
  1 25  1  0  0  0
  1 26  1  0  0  0
  2  3  1  0  0  0
  2 27  1  0  0  0
  2 28  1  0  0  0
  3  4  1  0  0  0
  3 29  1  0  0  0
  3 30  1  0  0  0
  4  5  1  0  0  0
  4 31  1  0  0  0
  4 32  1  0  0  0
  5  6  1  0  0  0
  6 12  2  0  0  0
  6  7  1  0  0  0
  7  8  2  0  0  0
  7 33  1  0  0  0
  8  9  1  0  0  0
  8 34  1  0  0  0
  9 10  1  0  0  0
  9 11  2  0  0  0
 11 12  1  0  0  0
 11 35  1  0  0  0
 12 13  1  0  0  0
 13 14  1  0  0  0
 13 36  1  0  0  0
 13 37  1  0  0  0
 14 15  2  0  0  0
 14 16  1  0  0  0
 16 17  1  0  0  0
 16 38  1  0  0  0
 17 22  2  0  0  0
 17 18  1  0  0  0
 18 19  2  0  0  0
 18 39  1  0  0  0
 19 20  1  0  0  0
 20 21  2  0  0  0
 20 40  1  0  0  0
 21 22  1  0  0  0
 21 41  1  0  0  0
 22 23  1  0  0  0
 23 42  1  0  0  0
 23 43  1  0  0  0
 23 44  1  0  0  0
M  END
> <r_i_docking_score>
-6.17878734111399

$$$$
ligprep_5.maegz:446
                    3D
 Schrodinger Suite 2020-4.
 31 32  0  0  1  0            999 V2000
    5.1696    0.9047   17.9630 C   0  0  0  0  0  0
    6.0590    0.6224   19.1415 C   0  0  0  0  0  0
    6.8241   -0.4525   19.1643 N   0  0  0  0  0  0
    7.5376   -0.4522   20.3433 N   0  0  0  0  0  0
    7.1746    0.6470   21.0105 N   0  0  0  0  0  0
    7.7568    0.9984   22.2058 N   0  0  0  0  0  0
    8.9354    1.6436   22.2594 C   0  0  0  0  0  0
    9.5695    1.9461   21.2481 O   0  0  0  0  0  0
    9.5002    1.9635   23.6541 C   0  0  0  0  0  0
   10.2006    3.3211   23.7117 C   0  0  0  0  0  0
    9.5739    4.4110   24.3260 C   0  0  0  0  0  0
   10.1959    5.6602   24.3493 C   0  0  0  0  0  0
   11.4402    5.8316   23.7426 C   0  0  0  0  0  0
   12.0617    4.7559   23.1106 C   0  0  0  0  0  0
   13.5698    4.9830   22.3077 Cl  0  0  0  0  0  0
   11.4518    3.5020   23.1079 C   0  0  0  0  0  0
    6.2276    1.3592   20.3090 C   0  0  0  0  0  0
    5.6073    2.6531   20.7989 C   0  0  0  0  0  0
    4.1637    1.1502   18.3055 H   0  0  0  0  0  0
    5.0877    0.0539   17.2868 H   0  0  0  0  0  0
    5.5323    1.7495   17.3767 H   0  0  0  0  0  0
    7.2614    0.7614   23.0509 H   0  0  0  0  0  0
    8.7083    1.9153   24.4037 H   0  0  0  0  0  0
   10.2191    1.1847   23.9123 H   0  0  0  0  0  0
    8.6018    4.2938   24.7830 H   0  0  0  0  0  0
    9.7067    6.4973   24.8256 H   0  0  0  0  0  0
   11.9179    6.7988   23.7483 H   0  0  0  0  0  0
   11.9325    2.6754   22.6049 H   0  0  0  0  0  0
    5.0175    3.1436   20.0231 H   0  0  0  0  0  0
    4.9459    2.4863   21.6487 H   0  0  0  0  0  0
    6.3618    3.3748   21.1123 H   0  0  0  0  0  0
  1  2  1  0  0  0
  1 19  1  0  0  0
  1 20  1  0  0  0
  1 21  1  0  0  0
  2 17  2  0  0  0
  2  3  1  0  0  0
  3  4  2  0  0  0
  4  5  1  0  0  0
  5  6  1  0  0  0
  5 17  1  0  0  0
  6  7  1  0  0  0
  6 22  1  0  0  0
  7  8  2  0  0  0
  7  9  1  0  0  0
  9 10  1  0  0  0
  9 23  1  0  0  0
  9 24  1  0  0  0
 10 16  2  0  0  0
 10 11  1  0  0  0
 11 12  2  0  0  0
 11 25  1  0  0  0
 12 13  1  0  0  0
 12 26  1  0  0  0
 13 14  2  0  0  0
 13 27  1  0  0  0
 14 15  1  0  0  0
 14 16  1  0  0  0
 16 28  1  0  0  0
 17 18  1  0  0  0
 18 29  1  0  0  0
 18 30  1  0  0  0
 18 31  1  0  0  0
M  END
> <r_i_docking_score>
-5.1937731696996

$$$$
ligprep_5.maegz:447
                    3D
 Schrodinger Suite 2020-4.
 32 34  0  0  1  0            999 V2000
    9.1199    1.9460   21.1080 O   0  0  0  0  0  0
    8.8525    1.3389   22.1459 C   0  0  0  0  0  0
    7.4925    0.6365   22.3065 C   0  0  0  0  0  0
    6.6783    0.6349   21.0104 C   0  0  0  0  0  0
    7.0564   -0.1893   19.9428 C   0  0  0  0  0  0
    6.3713   -0.1311   18.7300 C   0  0  0  0  0  0
    5.3007    0.7476   18.5766 C   0  0  0  0  0  0
    4.9013    1.5545   19.6409 C   0  0  0  0  0  0
    3.5423    2.6018   19.4656 Cl  0  0  0  0  0  0
    5.5963    1.5086   20.8500 C   0  0  0  0  0  0
    9.7189    1.2651   23.1738 N   0  0  0  0  0  0
   10.9934    1.7797   23.0650 N   0  0  0  0  0  0
   12.1233    1.0794   22.7083 C   0  0  0  0  0  0
   13.1785    1.8290   22.5293 N   0  0  0  0  0  0
   12.7367    3.1017   22.7810 C   0  0  0  0  0  0
   13.4410    4.3121   22.7092 C   0  0  0  0  0  0
   12.7694    5.4856   23.0553 C   0  0  0  0  0  0
   11.4305    5.4687   23.4458 C   0  0  0  0  0  0
   10.6931    4.2837   23.5069 C   0  0  0  0  0  0
   11.3704    3.1057   23.1673 C   0  0  0  0  0  0
    6.9338    1.1420   23.0953 H   0  0  0  0  0  0
    7.6501   -0.3929   22.6297 H   0  0  0  0  0  0
    7.8993   -0.8580   20.0422 H   0  0  0  0  0  0
    6.6783   -0.7616   17.9086 H   0  0  0  0  0  0
    4.7702    0.7916   17.6363 H   0  0  0  0  0  0
    5.2905    2.1550   21.6593 H   0  0  0  0  0  0
    9.4488    0.8398   24.0480 H   0  0  0  0  0  0
   12.0653    0.0124   22.5451 H   0  0  0  0  0  0
   14.4797    4.3297   22.4160 H   0  0  0  0  0  0
   13.3012    6.4257   23.0273 H   0  0  0  0  0  0
   10.9462    6.4021   23.6954 H   0  0  0  0  0  0
    9.6480    4.2846   23.7801 H   0  0  0  0  0  0
  1  2  2  0  0  0
  2  3  1  0  0  0
  2 11  1  0  0  0
  3  4  1  0  0  0
  3 21  1  0  0  0
  3 22  1  0  0  0
  4 10  2  0  0  0
  4  5  1  0  0  0
  5  6  2  0  0  0
  5 23  1  0  0  0
  6  7  1  0  0  0
  6 24  1  0  0  0
  7  8  2  0  0  0
  7 25  1  0  0  0
  8  9  1  0  0  0
  8 10  1  0  0  0
 10 26  1  0  0  0
 11 12  1  0  0  0
 11 27  1  0  0  0
 12 20  1  0  0  0
 12 13  1  0  0  0
 13 14  2  0  0  0
 13 28  1  0  0  0
 14 15  1  0  0  0
 15 20  2  0  0  0
 15 16  1  0  0  0
 16 17  2  0  0  0
 16 29  1  0  0  0
 17 18  1  0  0  0
 17 30  1  0  0  0
 18 19  2  0  0  0
 18 31  1  0  0  0
 19 20  1  0  0  0
 19 32  1  0  0  0
M  END
> <r_i_docking_score>
-6.78391601569882

$$$$
ligprep_5.maegz:448
                    3D
 Schrodinger Suite 2020-4.
 34 36  0  0  1  0            999 V2000
    6.6204   -1.1543   23.1303 O   0  0  0  0  0  0
    7.4027   -1.6320   22.3057 C   0  0  0  0  0  0
    8.0502   -0.7145   21.2516 C   0  0  0  0  0  0
    7.0304    0.0891   20.4367 C   0  0  0  0  0  0
    6.9045   -0.1248   19.0596 C   0  0  0  0  0  0
    5.9757    0.6010   18.3109 C   0  0  0  0  0  0
    5.1615    1.5467   18.9316 C   0  0  0  0  0  0
    5.2768    1.7688   20.3029 C   0  0  0  0  0  0
    4.2495    2.9165   21.0816 Cl  0  0  0  0  0  0
    6.2145    1.0519   21.0482 C   0  0  0  0  0  0
    7.7475   -2.9448   22.2827 N   0  0  0  0  0  0
    7.0975   -3.8643   23.1390 N   0  0  0  0  0  0
    7.6018   -4.0501   24.4115 C   0  0  0  0  0  0
    7.0153   -4.7812   25.2863 N   0  0  0  0  0  0
    5.8113   -5.4200   24.9571 C   0  0  0  0  0  0
    5.1692   -6.1713   25.9399 C   0  0  0  0  0  0
    3.9890   -6.8529   25.6348 C   0  0  0  0  0  0
    3.4622   -6.7963   24.3427 C   0  0  0  0  0  0
    4.0973   -6.0437   23.3530 C   0  0  0  0  0  0
    5.2696   -5.3485   23.6688 C   0  0  0  0  0  0
    5.9731   -4.4902   22.6371 C   0  0  0  0  0  0
    5.5698   -4.3655   21.4763 O   0  0  0  0  0  0
    8.6885   -1.2979   20.5835 H   0  0  0  0  0  0
    8.7141   -0.0194   21.7677 H   0  0  0  0  0  0
    7.5255   -0.8543   18.5598 H   0  0  0  0  0  0
    5.8908    0.4360   17.2468 H   0  0  0  0  0  0
    4.4467    2.1097   18.3458 H   0  0  0  0  0  0
    6.2885    1.2326   22.1104 H   0  0  0  0  0  0
    8.4034   -3.3727   21.6472 H   0  0  0  0  0  0
    8.5319   -3.5458   24.6634 H   0  0  0  0  0  0
    5.5966   -6.2357   26.9300 H   0  0  0  0  0  0
    3.4926   -7.4372   26.3964 H   0  0  0  0  0  0
    2.5536   -7.3323   24.1098 H   0  0  0  0  0  0
    3.6743   -6.0080   22.3577 H   0  0  0  0  0  0
  1  2  2  0  0  0
  2  3  1  0  0  0
  2 11  1  0  0  0
  3  4  1  0  0  0
  3 23  1  0  0  0
  3 24  1  0  0  0
  4 10  2  0  0  0
  4  5  1  0  0  0
  5  6  2  0  0  0
  5 25  1  0  0  0
  6  7  1  0  0  0
  6 26  1  0  0  0
  7  8  2  0  0  0
  7 27  1  0  0  0
  8  9  1  0  0  0
  8 10  1  0  0  0
 10 28  1  0  0  0
 11 12  1  0  0  0
 11 29  1  0  0  0
 12 21  1  0  0  0
 12 13  1  0  0  0
 13 14  2  0  0  0
 13 30  1  0  0  0
 14 15  1  0  0  0
 15 20  2  0  0  0
 15 16  1  0  0  0
 16 17  2  0  0  0
 16 31  1  0  0  0
 17 18  1  0  0  0
 17 32  1  0  0  0
 18 19  2  0  0  0
 18 33  1  0  0  0
 19 20  1  0  0  0
 19 34  1  0  0  0
 20 21  1  0  0  0
 21 22  2  0  0  0
M  END
> <r_i_docking_score>
-6.19200512941964

$$$$
ligprep_5.maegz:449
                    3D
 Schrodinger Suite 2020-4.
 24 25  0  0  1  0            999 V2000
    8.9734    1.5357   21.1080 O   0  0  0  0  0  0
    8.4009    0.6404   21.7377 C   0  0  0  0  0  0
    9.0255    0.0688   23.0210 C   0  0  0  0  0  0
   10.5476    0.1317   22.9873 C   0  0  0  0  0  0
   11.2071    1.2925   23.4086 C   0  0  0  0  0  0
   12.5874    1.4049   23.2625 C   0  0  0  0  0  0
   13.3139    0.3546   22.7076 C   0  0  0  0  0  0
   12.6669   -0.8053   22.2898 C   0  0  0  0  0  0
   13.5689   -2.0525   21.5097 Cl  0  0  0  0  0  0
   11.2842   -0.9197   22.4287 C   0  0  0  0  0  0
    7.1990    0.1347   21.3991 N   0  0  0  0  0  0
    6.5058    0.5035   20.2648 C   0  0  0  0  0  0
    6.9667    0.7477   19.0577 N   0  0  0  0  0  0
    5.8583    1.1463   18.3147 N   0  0  0  0  0  0
    4.7331    1.1631   19.1144 N   0  0  0  0  0  0
    5.1614    0.7484   20.3075 N   0  0  0  0  0  0
    8.6542    0.6518   23.8638 H   0  0  0  0  0  0
    8.6998   -0.9612   23.1759 H   0  0  0  0  0  0
   10.6453    2.1228   23.8116 H   0  0  0  0  0  0
   13.0957    2.3117   23.5548 H   0  0  0  0  0  0
   14.3746    0.4595   22.5669 H   0  0  0  0  0  0
   10.7833   -1.8048   22.0620 H   0  0  0  0  0  0
    6.7119   -0.4396   22.0692 H   0  0  0  0  0  0
    4.5523    0.6512   21.1141 H   0  0  0  0  0  0
  1  2  2  0  0  0
  2  3  1  0  0  0
  2 11  1  0  0  0
  3  4  1  0  0  0
  3 17  1  0  0  0
  3 18  1  0  0  0
  4 10  2  0  0  0
  4  5  1  0  0  0
  5  6  2  0  0  0
  5 19  1  0  0  0
  6  7  1  0  0  0
  6 20  1  0  0  0
  7  8  2  0  0  0
  7 21  1  0  0  0
  8  9  1  0  0  0
  8 10  1  0  0  0
 10 22  1  0  0  0
 11 12  1  0  0  0
 11 23  1  0  0  0
 12 16  1  0  0  0
 12 13  2  0  0  0
 13 14  1  0  0  0
 14 15  2  0  0  0
 15 16  1  0  0  0
 16 24  1  0  0  0
M  END
> <r_i_docking_score>
-6.4031009694242

$$$$
ligprep_5.maegz:450
                    3D
 Schrodinger Suite 2020-4.
 30 31  0  0  1  0            999 V2000
    6.9686   -0.4059   18.8302 C   0  0  0  0  0  0
    6.0833    0.6849   19.4142 C   0  0  0  0  0  0
    5.2119    1.3798   18.5677 C   0  0  0  0  0  0
    4.3643    2.3472   19.1092 C   0  0  0  0  0  0
    4.3203    2.6283   20.4343 N   0  0  0  0  0  0
    5.1699    1.9562   21.2498 C   0  0  0  0  0  0
    6.0713    0.9922   20.7906 C   0  0  0  0  0  0
    6.8957    0.3629   21.7324 N   0  0  0  0  0  0
    8.2262    0.5527   21.8239 C   0  0  0  0  0  0
    8.8549    1.3372   21.1079 O   0  0  0  0  0  0
    8.9356   -0.2370   22.9381 C   0  0  0  0  0  0
   10.4605   -0.1491   22.8785 C   0  0  0  0  0  0
   11.1358    0.9875   23.3451 C   0  0  0  0  0  0
   12.4825    1.1362   23.2676 N   0  0  0  0  0  0
   13.1959    0.1269   22.7074 C   0  0  0  0  0  0
   12.6074   -1.0452   22.2288 C   0  0  0  0  0  0
   13.5696   -2.2860   21.5162 Cl  0  0  0  0  0  0
   11.2208   -1.1804   22.3104 C   0  0  0  0  0  0
    7.0495   -1.2480   19.5187 H   0  0  0  0  0  0
    6.5454   -0.8057   17.9085 H   0  0  0  0  0  0
    7.9700   -0.0226   18.6280 H   0  0  0  0  0  0
    5.1933    1.1854   17.5058 H   0  0  0  0  0  0
    3.7098    2.9248   18.4710 H   0  0  0  0  0  0
    5.1136    2.2168   22.2966 H   0  0  0  0  0  0
    6.4269   -0.1399   22.4700 H   0  0  0  0  0  0
    8.6019    0.1638   23.8962 H   0  0  0  0  0  0
    8.6186   -1.2824   22.9050 H   0  0  0  0  0  0
   10.5902    1.8170   23.7710 H   0  0  0  0  0  0
   14.2632    0.2737   22.6454 H   0  0  0  0  0  0
   10.7470   -2.0701   21.9191 H   0  0  0  0  0  0
  1  2  1  0  0  0
  1 19  1  0  0  0
  1 20  1  0  0  0
  1 21  1  0  0  0
  2  7  2  0  0  0
  2  3  1  0  0  0
  3  4  2  0  0  0
  3 22  1  0  0  0
  4  5  1  0  0  0
  4 23  1  0  0  0
  5  6  2  0  0  0
  6  7  1  0  0  0
  6 24  1  0  0  0
  7  8  1  0  0  0
  8  9  1  0  0  0
  8 25  1  0  0  0
  9 10  2  0  0  0
  9 11  1  0  0  0
 11 12  1  0  0  0
 11 26  1  0  0  0
 11 27  1  0  0  0
 12 18  2  0  0  0
 12 13  1  0  0  0
 13 14  2  0  0  0
 13 28  1  0  0  0
 14 15  1  0  0  0
 15 16  2  0  0  0
 15 29  1  0  0  0
 16 17  1  0  0  0
 16 18  1  0  0  0
 18 30  1  0  0  0
M  END
> <r_i_docking_score>
-5.86790339668994

$$$$
ligprep_5.maegz:451
                    3D
 Schrodinger Suite 2020-4.
 41 43  0  0  1  0            999 V2000
    9.6157    5.4950   24.0206 C   0  0  0  0  0  0
   10.8606    4.7847   23.5069 C   0  0  0  0  0  0
   12.0366    5.5229   23.3297 C   0  0  0  0  0  0
   13.1697    4.8785   22.8323 C   0  0  0  0  0  0
   13.1888    3.5608   22.5210 N   0  0  0  0  0  0
   12.0535    2.8483   22.7078 C   0  0  0  0  0  0
   10.8531    3.4137   23.1767 C   0  0  0  0  0  0
    9.6616    2.6766   23.3403 N   0  0  0  0  0  0
    9.2801    1.5425   22.7143 C   0  0  0  0  0  0
    9.9663    0.9339   21.8931 O   0  0  0  0  0  0
    7.8882    1.0113   23.0986 C   0  0  0  0  0  0
    7.1976    0.2206   21.9874 C   0  0  0  0  0  0
    6.8818    0.8364   20.7685 C   0  0  0  0  0  0
    6.2534    0.1071   19.7595 C   0  0  0  0  0  0
    5.8801    0.7319   18.5062 C   0  0  0  0  0  0
    5.5751    1.2174   17.5080 N   0  0  0  0  0  0
    5.9420   -1.2370   19.9594 C   0  0  0  0  0  0
    6.2038   -1.8553   21.1777 C   0  0  0  0  0  0
    5.7819   -3.1641   21.2845 O   0  0  0  0  0  0
    6.0748   -3.8926   22.4340 C   0  0  2  0  0  0
    7.5614   -4.3297   22.5465 C   0  0  0  0  0  0
    7.0339   -5.7575   22.3606 C   0  0  0  0  0  0
    7.5430   -6.8680   22.3087 O   0  0  0  0  0  0
    5.7177   -5.3191   22.3049 N   0  0  0  0  0  0
    6.8477   -1.1215   22.1903 C   0  0  0  0  0  0
    9.7823    6.5624   24.1718 H   0  0  0  0  0  0
    8.7979    5.3826   23.3060 H   0  0  0  0  0  0
    9.2933    5.0591   24.9658 H   0  0  0  0  0  0
   12.0768    6.5767   23.5612 H   0  0  0  0  0  0
   14.0955    5.4209   22.6857 H   0  0  0  0  0  0
   12.1356    1.8012   22.4632 H   0  0  0  0  0  0
    8.9796    3.1077   23.9434 H   0  0  0  0  0  0
    7.2342    1.8321   23.3960 H   0  0  0  0  0  0
    8.0151    0.3840   23.9812 H   0  0  0  0  0  0
    7.1264    1.8804   20.6188 H   0  0  0  0  0  0
    5.4552   -1.8058   19.1800 H   0  0  0  0  0  0
    5.6342   -3.3912   23.3000 H   0  0  0  0  0  0
    8.0219   -4.1378   23.5162 H   0  0  0  0  0  0
    8.2019   -3.9833   21.7334 H   0  0  0  0  0  0
    4.9043   -5.8146   22.6340 H   0  0  0  0  0  0
    7.0704   -1.5792   23.1414 H   0  0  0  0  0  0
  1  2  1  0  0  0
  1 26  1  0  0  0
  1 27  1  0  0  0
  1 28  1  0  0  0
  2  7  2  0  0  0
  2  3  1  0  0  0
  3  4  2  0  0  0
  3 29  1  0  0  0
  4  5  1  0  0  0
  4 30  1  0  0  0
  5  6  2  0  0  0
  6  7  1  0  0  0
  6 31  1  0  0  0
  7  8  1  0  0  0
  8  9  1  0  0  0
  8 32  1  0  0  0
  9 10  2  0  0  0
  9 11  1  0  0  0
 11 12  1  0  0  0
 11 33  1  0  0  0
 11 34  1  0  0  0
 12 25  2  0  0  0
 12 13  1  0  0  0
 13 14  2  0  0  0
 13 35  1  0  0  0
 14 15  1  0  0  0
 14 17  1  0  0  0
 15 16  3  0  0  0
 17 18  2  0  0  0
 17 36  1  0  0  0
 18 19  1  0  0  0
 18 25  1  0  0  0
 19 20  1  0  0  0
 20 24  1  0  0  0
 20 21  1  0  0  0
 20 37  1  0  0  0
 21 22  1  0  0  0
 21 38  1  0  0  0
 21 39  1  0  0  0
 22 23  2  0  0  0
 22 24  1  0  0  0
 24 40  1  0  0  0
 25 41  1  0  0  0
M  END
> <r_i_docking_score>
-5.60911608991537

$$$$
ligprep_5.maegz:452
                    3D
 Schrodinger Suite 2020-4.
 40 42  0  0  1  0            999 V2000
    6.9717   -0.4014   18.8370 C   0  0  0  0  0  0
    6.0638    0.6761   19.4183 C   0  0  0  0  0  0
    5.2023    1.3771   18.5679 C   0  0  0  0  0  0
    4.3563    2.3466   19.1079 C   0  0  0  0  0  0
    4.3037    2.6259   20.4329 N   0  0  0  0  0  0
    5.1416    1.9471   21.2526 C   0  0  0  0  0  0
    6.0371    0.9768   20.7958 C   0  0  0  0  0  0
    6.8732    0.3564   21.7315 N   0  0  0  0  0  0
    8.1945    0.5989   21.8137 C   0  0  0  0  0  0
    8.7708    1.4297   21.1068 O   0  0  0  0  0  0
    8.9610   -0.1776   22.8994 C   0  0  0  0  0  0
   10.4807   -0.0674   22.7728 C   0  0  0  0  0  0
   11.2522   -1.1901   22.4680 C   0  0  0  0  0  0
   12.6303   -1.0659   22.3078 C   0  0  0  0  0  0
   13.5697   -2.4527   21.9077 Cl  0  0  0  0  0  0
   13.2439    0.1802   22.4485 C   0  0  0  0  0  0
   12.4848    1.3183   22.7219 C   0  0  0  0  0  0
   13.1393    2.5334   22.7731 O   0  0  0  0  0  0
   12.4394    3.6926   22.4177 C   0  0  2  0  0  0
   13.3336    4.9595   22.4007 C   0  0  0  0  0  0
   12.4186    5.4846   23.5252 C   0  0  0  0  0  0
   12.3550    6.5124   24.1935 O   0  0  0  0  0  0
   11.6536    4.3270   23.5022 N   0  0  0  0  0  0
   11.1061    1.1751   22.9194 C   0  0  0  0  0  0
    7.9693   -0.0020   18.6446 H   0  0  0  0  0  0
    7.0618   -1.2497   19.5180 H   0  0  0  0  0  0
    6.5644   -0.8004   17.9080 H   0  0  0  0  0  0
    5.1969    1.1905   17.5047 H   0  0  0  0  0  0
    3.7066    2.9254   18.4664 H   0  0  0  0  0  0
    5.0834    2.2005   22.3002 H   0  0  0  0  0  0
    6.4314   -0.1909   22.4539 H   0  0  0  0  0  0
    8.6693    0.2106   23.8756 H   0  0  0  0  0  0
    8.6520   -1.2231   22.8674 H   0  0  0  0  0  0
   10.7846   -2.1562   22.3343 H   0  0  0  0  0  0
   14.3101    0.2779   22.3049 H   0  0  0  0  0  0
   11.8723    3.4992   21.5010 H   0  0  0  0  0  0
   14.3695    4.7925   22.7034 H   0  0  0  0  0  0
   13.2813    5.5338   21.4759 H   0  0  0  0  0  0
   10.6692    4.2517   23.7088 H   0  0  0  0  0  0
   10.4945    2.0360   23.1439 H   0  0  0  0  0  0
  1  2  1  0  0  0
  1 25  1  0  0  0
  1 26  1  0  0  0
  1 27  1  0  0  0
  2  7  2  0  0  0
  2  3  1  0  0  0
  3  4  2  0  0  0
  3 28  1  0  0  0
  4  5  1  0  0  0
  4 29  1  0  0  0
  5  6  2  0  0  0
  6  7  1  0  0  0
  6 30  1  0  0  0
  7  8  1  0  0  0
  8  9  1  0  0  0
  8 31  1  0  0  0
  9 10  2  0  0  0
  9 11  1  0  0  0
 11 12  1  0  0  0
 11 32  1  0  0  0
 11 33  1  0  0  0
 12 24  2  0  0  0
 12 13  1  0  0  0
 13 14  2  0  0  0
 13 34  1  0  0  0
 14 15  1  0  0  0
 14 16  1  0  0  0
 16 17  2  0  0  0
 16 35  1  0  0  0
 17 18  1  0  0  0
 17 24  1  0  0  0
 18 19  1  0  0  0
 19 23  1  0  0  0
 19 20  1  0  0  0
 19 36  1  0  0  0
 20 21  1  0  0  0
 20 37  1  0  0  0
 20 38  1  0  0  0
 21 22  2  0  0  0
 21 23  1  0  0  0
 23 39  1  0  0  0
 24 40  1  0  0  0
M  END
> <r_i_docking_score>
-6.9847903566863

$$$$
ligprep_5.maegz:453
                    3D
 Schrodinger Suite 2020-4.
 43 45  0  0  1  0            999 V2000
    7.1981   -0.1853   19.5201 C   0  0  0  0  0  0
    6.1543    0.8782   19.8298 C   0  0  0  0  0  0
    5.2214    1.1899   18.8350 C   0  0  0  0  0  0
    4.2263    2.1278   19.1116 C   0  0  0  0  0  0
    4.0879    2.7300   20.3158 N   0  0  0  0  0  0
    4.9991    2.4326   21.2722 C   0  0  0  0  0  0
    6.0584    1.5412   21.0744 C   0  0  0  0  0  0
    6.9394    1.3622   22.1493 N   0  0  0  0  0  0
    8.2654    1.6031   22.1187 C   0  0  0  0  0  0
    8.8790    1.9468   21.1080 O   0  0  0  0  0  0
    9.0269    1.4330   23.4471 C   0  0  2  0  0  0
    9.7615    2.7313   23.8612 C   0  0  0  0  0  0
    9.9496    0.2143   23.3542 C   0  0  0  0  0  0
   11.1994    0.2926   22.7259 C   0  0  0  0  0  0
   12.0083   -0.8358   22.6270 C   0  0  0  0  0  0
   13.5696   -0.7242   21.9078 Cl  0  0  0  0  0  0
   11.5689   -2.0532   23.1362 C   0  0  0  0  0  0
   10.3328   -2.1565   23.7743 C   0  0  0  0  0  0
   10.0098   -3.3879   24.3080 O   0  0  0  0  0  0
    8.7068   -3.6540   24.7277 C   0  0  2  0  0  0
    8.3618   -3.1841   26.1708 C   0  0  0  0  0  0
    8.2288   -4.6814   26.5060 C   0  0  0  0  0  0
    7.9416   -5.3266   27.5078 O   0  0  0  0  0  0
    8.5324   -5.0418   25.1998 N   0  0  0  0  0  0
    9.5223   -1.0156   23.8688 C   0  0  0  0  0  0
    7.6522   -0.6079   20.4157 H   0  0  0  0  0  0
    6.7390   -1.0167   18.9838 H   0  0  0  0  0  0
    7.9703    0.2297   18.8750 H   0  0  0  0  0  0
    5.2687    0.7248   17.8607 H   0  0  0  0  0  0
    3.5191    2.4237   18.3516 H   0  0  0  0  0  0
    4.8749    2.9566   22.2081 H   0  0  0  0  0  0
    6.5082    1.2140   23.0483 H   0  0  0  0  0  0
    8.3037    1.2341   24.2407 H   0  0  0  0  0  0
   10.4625    3.0768   23.0996 H   0  0  0  0  0  0
    9.0559    3.5446   24.0369 H   0  0  0  0  0  0
   10.3229    2.5866   24.7852 H   0  0  0  0  0  0
   11.5458    1.2266   22.3092 H   0  0  0  0  0  0
   12.2028   -2.9247   23.0641 H   0  0  0  0  0  0
    8.0113   -3.3628   23.9349 H   0  0  0  0  0  0
    9.1693   -2.6772   26.6956 H   0  0  0  0  0  0
    7.4316   -2.6228   26.2511 H   0  0  0  0  0  0
    8.2265   -5.8642   24.7035 H   0  0  0  0  0  0
    8.5608   -1.0727   24.3546 H   0  0  0  0  0  0
  1  2  1  0  0  0
  1 26  1  0  0  0
  1 27  1  0  0  0
  1 28  1  0  0  0
  2  7  2  0  0  0
  2  3  1  0  0  0
  3  4  2  0  0  0
  3 29  1  0  0  0
  4  5  1  0  0  0
  4 30  1  0  0  0
  5  6  2  0  0  0
  6  7  1  0  0  0
  6 31  1  0  0  0
  7  8  1  0  0  0
  8  9  1  0  0  0
  8 32  1  0  0  0
  9 10  2  0  0  0
  9 11  1  0  0  0
 11 12  1  0  0  0
 11 13  1  0  0  0
 11 33  1  0  0  0
 12 34  1  0  0  0
 12 35  1  0  0  0
 12 36  1  0  0  0
 13 25  2  0  0  0
 13 14  1  0  0  0
 14 15  2  0  0  0
 14 37  1  0  0  0
 15 16  1  0  0  0
 15 17  1  0  0  0
 17 18  2  0  0  0
 17 38  1  0  0  0
 18 19  1  0  0  0
 18 25  1  0  0  0
 19 20  1  0  0  0
 20 24  1  0  0  0
 20 21  1  0  0  0
 20 39  1  0  0  0
 21 22  1  0  0  0
 21 40  1  0  0  0
 21 41  1  0  0  0
 22 23  2  0  0  0
 22 24  1  0  0  0
 24 42  1  0  0  0
 25 43  1  0  0  0
M  END
> <r_i_docking_score>
-6.2068893752927

$$$$
ligprep_5.maegz:454
                    3D
 Schrodinger Suite 2020-4.
 31 32  0  0  1  0            999 V2000
    5.3869    3.1469   21.1095 C   0  0  0  0  0  0
    5.8826    1.9460   20.3118 C   0  0  0  0  0  0
    5.1797    1.5644   19.1622 C   0  0  0  0  0  0
    5.6337    0.4695   18.4287 C   0  0  0  0  0  0
    6.7063   -0.2684   18.7967 N   0  0  0  0  0  0
    7.3849    0.1075   19.9086 C   0  0  0  0  0  0
    7.0363    1.2268   20.6886 C   0  0  0  0  0  0
    7.7750    1.6612   21.8129 N   0  0  0  0  0  0
    9.0529    1.3760   22.1509 C   0  0  0  0  0  0
    9.7884    0.6289   21.5080 O   0  0  0  0  0  0
    9.5986    2.0456   23.4265 C   0  0  0  0  0  0
   10.8616    2.8803   23.1889 C   0  0  0  0  0  0
   12.0389    2.2900   22.7086 C   0  0  0  0  0  0
   13.1691    3.0680   22.4537 C   0  0  0  0  0  0
   13.1468    4.4370   22.7180 C   0  0  0  0  0  0
   11.9915    5.0268   23.2307 C   0  0  0  0  0  0
   11.9753    6.3479   23.5116 F   0  0  0  0  0  0
   10.8543    4.2541   23.4629 C   0  0  0  0  0  0
    6.1302    3.9462   21.1086 H   0  0  0  0  0  0
    4.4562    3.5519   20.7049 H   0  0  0  0  0  0
    5.2017    2.8659   22.1474 H   0  0  0  0  0  0
    4.3149    2.1180   18.8259 H   0  0  0  0  0  0
    5.1322    0.1630   17.5215 H   0  0  0  0  0  0
    8.2231   -0.5292   20.1492 H   0  0  0  0  0  0
    7.2905    2.3312   22.3887 H   0  0  0  0  0  0
    8.8250    2.6630   23.8861 H   0  0  0  0  0  0
    9.8269    1.2621   24.1495 H   0  0  0  0  0  0
   12.0724    1.2280   22.5067 H   0  0  0  0  0  0
   14.0667    2.6096   22.0657 H   0  0  0  0  0  0
   14.0240    5.0414   22.5381 H   0  0  0  0  0  0
    9.9660    4.7333   23.8439 H   0  0  0  0  0  0
  1  2  1  0  0  0
  1 19  1  0  0  0
  1 20  1  0  0  0
  1 21  1  0  0  0
  2  7  2  0  0  0
  2  3  1  0  0  0
  3  4  2  0  0  0
  3 22  1  0  0  0
  4  5  1  0  0  0
  4 23  1  0  0  0
  5  6  2  0  0  0
  6  7  1  0  0  0
  6 24  1  0  0  0
  7  8  1  0  0  0
  8  9  1  0  0  0
  8 25  1  0  0  0
  9 10  2  0  0  0
  9 11  1  0  0  0
 11 12  1  0  0  0
 11 26  1  0  0  0
 11 27  1  0  0  0
 12 18  2  0  0  0
 12 13  1  0  0  0
 13 14  2  0  0  0
 13 28  1  0  0  0
 14 15  1  0  0  0
 14 29  1  0  0  0
 15 16  2  0  0  0
 15 30  1  0  0  0
 16 17  1  0  0  0
 16 18  1  0  0  0
 18 31  1  0  0  0
M  END
> <r_i_docking_score>
-5.4125409093822

$$$$
ligprep_5.maegz:455
                    3D
 Schrodinger Suite 2020-4.
 35 37  0  0  1  0            999 V2000
    5.5696   -3.1048   20.8973 O   0  0  0  0  0  0
    6.4503   -2.7260   21.6715 C   0  0  0  0  0  0
    7.3643   -1.5420   21.2898 C   0  0  0  0  0  0
    6.6563   -0.4447   20.4915 C   0  0  0  0  0  0
    6.6533   -0.4553   19.0902 C   0  0  0  0  0  0
    5.9694    0.5281   18.3745 C   0  0  0  0  0  0
    5.2800    1.5338   19.0531 C   0  0  0  0  0  0
    5.2795    1.5518   20.4457 C   0  0  0  0  0  0
    4.4064    2.7715   21.2934 Cl  0  0  0  0  0  0
    5.9697    0.5704   21.1615 C   0  0  0  0  0  0
    6.7287   -3.3085   22.8604 N   0  0  0  0  0  0
    6.0643   -4.3592   23.5366 C   0  0  0  0  0  0
    5.0467   -5.1473   22.9692 C   0  0  0  0  0  0
    4.3917   -6.1263   23.6393 N   0  0  0  0  0  0
    4.7479   -6.3585   24.9257 C   0  0  0  0  0  0
    5.7617   -5.6521   25.5671 C   0  0  0  0  0  0
    6.4448   -4.6504   24.8651 C   0  0  0  0  0  0
    7.5929   -3.9059   25.5452 C   0  0  0  0  0  0
    8.4130   -4.4817   26.6852 C   0  0  0  0  0  0
    9.0267   -4.3191   25.3130 C   0  0  0  0  0  0
    7.8028   -1.1001   22.1852 H   0  0  0  0  0  0
    8.1983   -1.9349   20.7081 H   0  0  0  0  0  0
    7.1683   -1.2364   18.5507 H   0  0  0  0  0  0
    5.9697    0.5068   17.2944 H   0  0  0  0  0  0
    4.7434    2.2923   18.4975 H   0  0  0  0  0  0
    5.9393    0.5867   22.2412 H   0  0  0  0  0  0
    7.5095   -2.9258   23.3708 H   0  0  0  0  0  0
    4.7269   -5.0317   21.9469 H   0  0  0  0  0  0
    4.2057   -7.1406   25.4401 H   0  0  0  0  0  0
    6.0128   -5.8910   26.5895 H   0  0  0  0  0  0
    7.4121   -2.8310   25.6110 H   0  0  0  0  0  0
    8.2172   -5.4928   27.0443 H   0  0  0  0  0  0
    8.7276   -3.8176   27.4898 H   0  0  0  0  0  0
    9.7748   -3.5442   25.1473 H   0  0  0  0  0  0
    9.2086   -5.2083   24.7091 H   0  0  0  0  0  0
  1  2  2  0  0  0
  2  3  1  0  0  0
  2 11  1  0  0  0
  3  4  1  0  0  0
  3 21  1  0  0  0
  3 22  1  0  0  0
  4 10  2  0  0  0
  4  5  1  0  0  0
  5  6  2  0  0  0
  5 23  1  0  0  0
  6  7  1  0  0  0
  6 24  1  0  0  0
  7  8  2  0  0  0
  7 25  1  0  0  0
  8  9  1  0  0  0
  8 10  1  0  0  0
 10 26  1  0  0  0
 11 12  1  0  0  0
 11 27  1  0  0  0
 12 17  2  0  0  0
 12 13  1  0  0  0
 13 14  2  0  0  0
 13 28  1  0  0  0
 14 15  1  0  0  0
 15 16  2  0  0  0
 15 29  1  0  0  0
 16 17  1  0  0  0
 16 30  1  0  0  0
 17 18  1  0  0  0
 18 20  1  0  0  0
 18 19  1  0  0  0
 18 31  1  0  0  0
 19 20  1  0  0  0
 19 32  1  0  0  0
 19 33  1  0  0  0
 20 34  1  0  0  0
 20 35  1  0  0  0
M  END
> <r_i_docking_score>
-5.39733292152512

$$$$
ligprep_5.maegz:456
                    3D
 Schrodinger Suite 2020-4.
 40 41  0  0  1  0            999 V2000
    8.2031   -4.8925   24.8702 C   0  0  0  0  0  0
    8.2066   -4.0014   23.6190 C   0  0  0  0  0  0
    9.2714   -2.8849   23.6893 C   0  0  0  0  0  0
    9.4344   -2.0277   22.4003 C   0  0  1  0  0  0
    8.1637   -1.2376   21.9790 C   0  0  0  0  0  0
    7.2249   -1.1056   22.7666 O   0  0  0  0  0  0
    8.1673   -0.7088   20.7353 N   0  0  0  0  0  0
    7.1481    0.0778   20.1674 C   0  0  0  0  0  0
    6.6378   -0.3251   18.9286 C   0  0  0  0  0  0
    5.6614    0.3469   18.2692 N   0  0  0  0  0  0
    5.1557    1.4603   18.8498 C   0  0  0  0  0  0
    5.6104    1.9472   20.0718 C   0  0  0  0  0  0
    6.6403    1.2697   20.7352 C   0  0  0  0  0  0
    7.2209    1.9084   21.9900 C   0  0  0  0  0  0
   10.6773   -1.1247   22.5243 C   0  0  0  0  0  0
   11.9393   -1.6489   22.2192 C   0  0  0  0  0  0
   13.0812   -0.8535   22.3078 C   0  0  0  0  0  0
   12.9777    0.4785   22.7080 C   0  0  0  0  0  0
   11.7316    1.0045   23.0468 C   0  0  0  0  0  0
   11.5738    2.6572   23.5078 Cl  0  0  0  0  0  0
   10.5964    0.1993   22.9830 C   0  0  0  0  0  0
    7.4239   -5.6517   24.8032 H   0  0  0  0  0  0
    9.1539   -5.4083   25.0014 H   0  0  0  0  0  0
    8.0142   -4.3080   25.7707 H   0  0  0  0  0  0
    7.2134   -3.5676   23.4996 H   0  0  0  0  0  0
    8.3701   -4.6196   22.7348 H   0  0  0  0  0  0
   10.2312   -3.3528   23.9169 H   0  0  0  0  0  0
    9.0559   -2.2320   24.5379 H   0  0  0  0  0  0
    9.6370   -2.7152   21.5765 H   0  0  0  0  0  0
    8.8933   -1.0198   20.1062 H   0  0  0  0  0  0
    7.0077   -1.2108   18.4318 H   0  0  0  0  0  0
    4.3783    1.9818   18.3079 H   0  0  0  0  0  0
    5.1981    2.8664   20.4654 H   0  0  0  0  0  0
    6.9609    2.9675   22.0621 H   0  0  0  0  0  0
    6.8677    1.4020   22.8885 H   0  0  0  0  0  0
    8.3097    1.8647   21.9651 H   0  0  0  0  0  0
   12.0320   -2.6745   21.8912 H   0  0  0  0  0  0
   14.0443   -1.2690   22.0502 H   0  0  0  0  0  0
   13.8589    1.1020   22.7538 H   0  0  0  0  0  0
    9.6475    0.6208   23.2780 H   0  0  0  0  0  0
  1  2  1  0  0  0
  1 22  1  0  0  0
  1 23  1  0  0  0
  1 24  1  0  0  0
  2  3  1  0  0  0
  2 25  1  0  0  0
  2 26  1  0  0  0
  3  4  1  0  0  0
  3 27  1  0  0  0
  3 28  1  0  0  0
  4  5  1  0  0  0
  4 15  1  0  0  0
  4 29  1  0  0  0
  5  6  2  0  0  0
  5  7  1  0  0  0
  7  8  1  0  0  0
  7 30  1  0  0  0
  8 13  2  0  0  0
  8  9  1  0  0  0
  9 10  2  0  0  0
  9 31  1  0  0  0
 10 11  1  0  0  0
 11 12  2  0  0  0
 11 32  1  0  0  0
 12 13  1  0  0  0
 12 33  1  0  0  0
 13 14  1  0  0  0
 14 34  1  0  0  0
 14 35  1  0  0  0
 14 36  1  0  0  0
 15 21  2  0  0  0
 15 16  1  0  0  0
 16 17  2  0  0  0
 16 37  1  0  0  0
 17 18  1  0  0  0
 17 38  1  0  0  0
 18 19  2  0  0  0
 18 39  1  0  0  0
 19 20  1  0  0  0
 19 21  1  0  0  0
 21 40  1  0  0  0
M  END
> <r_i_docking_score>
-6.22192197520393

$$$$
ligprep_5.maegz:457
                    3D
 Schrodinger Suite 2020-4.
 31 32  0  0  1  0            999 V2000
    5.6137    3.0613   21.4298 C   0  0  0  0  0  0
    5.9028    1.9291   20.4491 C   0  0  0  0  0  0
    5.1097    1.8129   19.3018 C   0  0  0  0  0  0
    5.3641    0.7763   18.4076 C   0  0  0  0  0  0
    6.3315   -0.1474   18.6089 N   0  0  0  0  0  0
    7.1087   -0.0222   19.7122 C   0  0  0  0  0  0
    6.9480    1.0078   20.6582 C   0  0  0  0  0  0
    7.7896    1.1969   21.7746 N   0  0  0  0  0  0
    8.8150    0.4461   22.2256 C   0  0  0  0  0  0
    9.1889   -0.6152   21.7282 O   0  0  0  0  0  0
    9.5558    0.9948   23.4546 C   0  0  0  0  0  0
   10.9862    1.3898   23.1038 C   0  0  0  0  0  0
   11.9538    0.3975   22.9131 C   0  0  0  0  0  0
   13.2404    0.7432   22.5114 C   0  0  0  0  0  0
   13.5696    2.0818   22.3090 C   0  0  0  0  0  0
   12.6237    3.0806   22.5295 C   0  0  0  0  0  0
   13.1160    4.9065   22.3072 Br  0  0  0  0  0  0
   11.3283    2.7363   22.9152 C   0  0  0  0  0  0
    6.4872    3.7042   21.5339 H   0  0  0  0  0  0
    4.7744    3.6823   21.1108 H   0  0  0  0  0  0
    5.3794    2.6502   22.4123 H   0  0  0  0  0  0
    4.3221    2.5240   19.0933 H   0  0  0  0  0  0
    4.7720    0.6694   17.5098 H   0  0  0  0  0  0
    7.8723   -0.7792   19.7888 H   0  0  0  0  0  0
    7.5843    2.0327   22.2999 H   0  0  0  0  0  0
    9.0269    1.8483   23.8798 H   0  0  0  0  0  0
    9.5692    0.2217   24.2232 H   0  0  0  0  0  0
   11.7013   -0.6457   23.0467 H   0  0  0  0  0  0
   13.9799   -0.0265   22.3420 H   0  0  0  0  0  0
   14.5676    2.3466   21.9908 H   0  0  0  0  0  0
   10.5939    3.5176   23.0528 H   0  0  0  0  0  0
  1  2  1  0  0  0
  1 19  1  0  0  0
  1 20  1  0  0  0
  1 21  1  0  0  0
  2  7  2  0  0  0
  2  3  1  0  0  0
  3  4  2  0  0  0
  3 22  1  0  0  0
  4  5  1  0  0  0
  4 23  1  0  0  0
  5  6  2  0  0  0
  6  7  1  0  0  0
  6 24  1  0  0  0
  7  8  1  0  0  0
  8  9  1  0  0  0
  8 25  1  0  0  0
  9 10  2  0  0  0
  9 11  1  0  0  0
 11 12  1  0  0  0
 11 26  1  0  0  0
 11 27  1  0  0  0
 12 18  2  0  0  0
 12 13  1  0  0  0
 13 14  2  0  0  0
 13 28  1  0  0  0
 14 15  1  0  0  0
 14 29  1  0  0  0
 15 16  2  0  0  0
 15 30  1  0  0  0
 16 17  1  0  0  0
 16 18  1  0  0  0
 18 31  1  0  0  0
M  END
> <r_i_docking_score>
-5.72179735303272

$$$$
ligprep_5.maegz:458
                    3D
 Schrodinger Suite 2020-4.
 37 38  0  0  1  0            999 V2000
    6.3929    2.4656   22.1688 C   0  0  0  0  0  0
    6.2544    1.5488   20.9581 C   0  0  0  0  0  0
    5.4509    1.9555   19.8878 C   0  0  0  0  0  0
    5.3482    1.1396   18.7644 C   0  0  0  0  0  0
    5.9713   -0.0582   18.6710 N   0  0  0  0  0  0
    6.7408   -0.4527   19.7184 C   0  0  0  0  0  0
    6.9132    0.3099   20.8850 C   0  0  0  0  0  0
    7.7465   -0.0945   21.9458 N   0  0  0  0  0  0
    7.9698   -1.3473   22.4059 C   0  0  0  0  0  0
    7.4537   -2.3516   21.9080 O   0  0  0  0  0  0
    8.8912   -1.4707   23.6633 C   0  0  0  0  0  0
    8.2107   -0.7478   24.8659 C   0  0  0  0  0  0
    9.0369   -2.9602   24.1134 C   0  0  0  0  0  0
   10.2925   -0.8833   23.3269 C   0  0  0  0  0  0
   10.7023    0.3796   23.7933 C   0  0  0  0  0  0
   11.9614    0.8918   23.4797 C   0  0  0  0  0  0
   12.8464    0.1461   22.7081 C   0  0  0  0  0  0
   12.4695   -1.1153   22.2532 C   0  0  0  0  0  0
   13.5677   -2.0529   21.3185 Cl  0  0  0  0  0  0
   11.2028   -1.6177   22.5465 C   0  0  0  0  0  0
    5.8071    3.3790   22.0638 H   0  0  0  0  0  0
    6.0618    1.9502   23.0707 H   0  0  0  0  0  0
    7.4361    2.7472   22.3120 H   0  0  0  0  0  0
    4.9456    2.9133   19.9038 H   0  0  0  0  0  0
    4.7676    1.4492   17.9079 H   0  0  0  0  0  0
    7.2368   -1.4000   19.5932 H   0  0  0  0  0  0
    8.1436    0.6593   22.4839 H   0  0  0  0  0  0
    7.9654    0.2950   24.6574 H   0  0  0  0  0  0
    7.2727   -1.2303   25.1459 H   0  0  0  0  0  0
    8.8479   -0.7577   25.7508 H   0  0  0  0  0  0
    9.3802   -3.6158   23.3122 H   0  0  0  0  0  0
    9.7411   -3.0647   24.9390 H   0  0  0  0  0  0
    8.0849   -3.3731   24.4524 H   0  0  0  0  0  0
   10.0541    0.9923   24.4022 H   0  0  0  0  0  0
   12.2535    1.8683   23.8392 H   0  0  0  0  0  0
   13.8213    0.5431   22.4613 H   0  0  0  0  0  0
   10.9351   -2.5875   22.1511 H   0  0  0  0  0  0
  1  2  1  0  0  0
  1 21  1  0  0  0
  1 22  1  0  0  0
  1 23  1  0  0  0
  2  7  2  0  0  0
  2  3  1  0  0  0
  3  4  2  0  0  0
  3 24  1  0  0  0
  4  5  1  0  0  0
  4 25  1  0  0  0
  5  6  2  0  0  0
  6  7  1  0  0  0
  6 26  1  0  0  0
  7  8  1  0  0  0
  8  9  1  0  0  0
  8 27  1  0  0  0
  9 10  2  0  0  0
  9 11  1  0  0  0
 11 12  1  0  0  0
 11 13  1  0  0  0
 11 14  1  0  0  0
 12 28  1  0  0  0
 12 29  1  0  0  0
 12 30  1  0  0  0
 13 31  1  0  0  0
 13 32  1  0  0  0
 13 33  1  0  0  0
 14 20  2  0  0  0
 14 15  1  0  0  0
 15 16  2  0  0  0
 15 34  1  0  0  0
 16 17  1  0  0  0
 16 35  1  0  0  0
 17 18  2  0  0  0
 17 36  1  0  0  0
 18 19  1  0  0  0
 18 20  1  0  0  0
 20 37  1  0  0  0
M  END
> <r_i_docking_score>
-5.81431424369249

$$$$
ligprep_5.maegz:459
                    3D
 Schrodinger Suite 2020-4.
 43 45  0  0  1  0            999 V2000
   10.3001    3.0746   23.3635 C   0  0  0  0  0  0
    9.8787    1.7532   23.0421 O   0  0  0  0  0  0
   10.8261    0.7683   22.8253 C   0  0  0  0  0  0
   12.2101    0.9761   22.9694 C   0  0  0  0  0  0
   13.1129   -0.0517   22.7077 C   0  0  0  0  0  0
   12.6478   -1.3016   22.3079 C   0  0  0  0  0  0
   11.2793   -1.5264   22.1801 C   0  0  0  0  0  0
   10.3597   -0.4942   22.4213 C   0  0  0  0  0  0
    8.9952   -0.6819   22.3087 O   0  0  0  0  0  0
    8.5067   -1.3935   21.1709 C   0  0  0  0  0  0
    6.9763   -1.5412   21.2781 C   0  0  0  0  0  0
    6.6128   -2.4648   22.3532 N   0  0  0  0  0  0
    6.0382   -3.6701   22.1998 C   0  0  0  0  0  0
    5.5697   -4.0525   21.1246 O   0  0  0  0  0  0
    6.0010   -4.4739   23.4148 C   0  0  0  0  0  0
    4.8644   -5.1923   23.6538 C   0  0  0  0  0  0
    4.6407   -6.0531   24.8044 C   0  0  0  0  0  0
    3.7402   -6.8796   24.8993 O   0  0  0  0  0  0
    5.5695   -5.9121   25.7705 N   0  0  0  0  0  0
    6.7993   -5.2528   25.6425 C   0  0  0  0  0  0
    7.7661   -5.3967   26.6380 C   0  0  0  0  0  0
    9.0371   -4.8531   26.4551 C   0  0  0  0  0  0
    9.3388   -4.1716   25.2770 C   0  0  0  0  0  0
    8.3727   -4.0204   24.2847 C   0  0  0  0  0  0
    7.0831   -4.5469   24.4558 C   0  0  0  0  0  0
    9.4248    3.7166   23.4620 H   0  0  0  0  0  0
   10.8398    3.1037   24.3114 H   0  0  0  0  0  0
   10.9292    3.4967   22.5783 H   0  0  0  0  0  0
   12.6055    1.9325   23.2752 H   0  0  0  0  0  0
   14.1732    0.1229   22.8122 H   0  0  0  0  0  0
   13.3445   -2.1027   22.1078 H   0  0  0  0  0  0
   10.9473   -2.5108   21.8878 H   0  0  0  0  0  0
    8.9512   -2.3867   21.1061 H   0  0  0  0  0  0
    8.7698   -0.8525   20.2613 H   0  0  0  0  0  0
    6.5600   -1.8325   20.3110 H   0  0  0  0  0  0
    6.5332   -0.5722   21.5138 H   0  0  0  0  0  0
    6.9109   -2.1961   23.2796 H   0  0  0  0  0  0
    4.0449   -5.1707   22.9483 H   0  0  0  0  0  0
    5.4099   -6.5051   26.5685 H   0  0  0  0  0  0
    7.5525   -5.9653   27.5316 H   0  0  0  0  0  0
    9.7976   -4.9890   27.2116 H   0  0  0  0  0  0
   10.3329   -3.7810   25.1103 H   0  0  0  0  0  0
    8.6655   -3.5231   23.3722 H   0  0  0  0  0  0
  1  2  1  0  0  0
  1 26  1  0  0  0
  1 27  1  0  0  0
  1 28  1  0  0  0
  2  3  1  0  0  0
  3  8  2  0  0  0
  3  4  1  0  0  0
  4  5  2  0  0  0
  4 29  1  0  0  0
  5  6  1  0  0  0
  5 30  1  0  0  0
  6  7  2  0  0  0
  6 31  1  0  0  0
  7  8  1  0  0  0
  7 32  1  0  0  0
  8  9  1  0  0  0
  9 10  1  0  0  0
 10 11  1  0  0  0
 10 33  1  0  0  0
 10 34  1  0  0  0
 11 12  1  0  0  0
 11 35  1  0  0  0
 11 36  1  0  0  0
 12 13  1  0  0  0
 12 37  1  0  0  0
 13 14  2  0  0  0
 13 15  1  0  0  0
 15 25  1  0  0  0
 15 16  2  0  0  0
 16 17  1  0  0  0
 16 38  1  0  0  0
 17 18  2  0  0  0
 17 19  1  0  0  0
 19 20  1  0  0  0
 19 39  1  0  0  0
 20 25  2  0  0  0
 20 21  1  0  0  0
 21 22  2  0  0  0
 21 40  1  0  0  0
 22 23  1  0  0  0
 22 41  1  0  0  0
 23 24  2  0  0  0
 23 42  1  0  0  0
 24 25  1  0  0  0
 24 43  1  0  0  0
M  END
> <r_i_docking_score>
-7.03464907833187

$$$$
ligprep_5.maegz:460
                    3D
 Schrodinger Suite 2020-4.
 59 62  0  0  1  0            999 V2000
    5.9167   -6.0002   28.5217 C   0  0  0  0  0  0
    5.4645   -6.0042   27.0642 C   0  0  0  0  0  0
    4.1518   -6.3685   26.7933 C   0  0  0  0  0  0
    3.6622   -6.3851   25.4918 C   0  0  0  0  0  0
    2.2090   -6.8001   25.2886 C   0  0  0  0  0  0
    4.4967   -6.0137   24.4206 C   0  0  0  0  0  0
    3.9314   -6.0717   23.0015 C   0  0  0  0  0  0
    5.8444   -5.6423   24.6716 C   0  0  0  0  0  0
    6.9081   -4.9654   23.3401 S   0  0  0  0  0  0
    6.0838   -4.5046   22.2154 O   0  0  0  0  0  0
    7.9690   -5.9566   23.1258 O   0  0  0  0  0  0
    7.6557   -3.5038   24.0341 N   0  0  0  0  0  0
    9.0622   -3.2027   23.6980 C   0  0  0  0  0  0
    9.1549   -2.5939   22.2859 C   0  0  0  0  0  0
    8.3107   -1.3698   22.2830 N   0  0  0  0  0  0
    8.8731   -0.1539   22.0240 C   0  0  0  0  0  0
   10.0884    0.0137   21.9052 O   0  0  0  0  0  0
    7.9635    0.9633   21.8464 C   0  0  0  0  0  0
    7.9797    1.9476   22.7901 C   0  0  0  0  0  0
    7.1045    3.1100   22.7941 C   0  0  0  0  0  0
    7.1758    4.0297   23.6026 O   0  0  0  0  0  0
    6.1838    3.1005   21.8105 N   0  0  0  0  0  0
    6.0696    2.1553   20.7835 C   0  0  0  0  0  0
    5.1286    2.3348   19.7750 C   0  0  0  0  0  0
    5.0879    1.4388   18.7087 C   0  0  0  0  0  0
    5.9712    0.3613   18.6517 C   0  0  0  0  0  0
    6.9094    0.1753   19.6626 C   0  0  0  0  0  0
    6.9696    1.0720   20.7393 C   0  0  0  0  0  0
    6.8802   -1.5624   22.6646 C   0  0  0  0  0  0
    6.8557   -2.2577   24.0490 C   0  0  0  0  0  0
    6.3244   -5.6501   26.0089 C   0  0  0  0  0  0
    7.7951   -5.3735   26.3479 C   0  0  0  0  0  0
    5.0814   -6.0379   29.2177 H   0  0  0  0  0  0
    6.5707   -6.8495   28.7221 H   0  0  0  0  0  0
    6.4685   -5.0888   28.7487 H   0  0  0  0  0  0
    3.5021   -6.6465   27.6103 H   0  0  0  0  0  0
    1.6669   -6.0392   24.7246 H   0  0  0  0  0  0
    2.1499   -7.7325   24.7237 H   0  0  0  0  0  0
    1.6793   -6.9448   26.2317 H   0  0  0  0  0  0
    4.6784   -6.4542   22.3069 H   0  0  0  0  0  0
    3.0840   -6.7479   22.8892 H   0  0  0  0  0  0
    3.6208   -5.0786   22.6771 H   0  0  0  0  0  0
    9.3908   -2.4455   24.4122 H   0  0  0  0  0  0
    9.7059   -4.0522   23.9086 H   0  0  0  0  0  0
    8.6947   -3.2823   21.5783 H   0  0  0  0  0  0
   10.1852   -2.4520   21.9538 H   0  0  0  0  0  0
    8.6729    1.8990   23.6179 H   0  0  0  0  0  0
    5.5870    3.9128   21.7958 H   0  0  0  0  0  0
    4.4607    3.1856   19.7877 H   0  0  0  0  0  0
    4.3807    1.5843   17.9092 H   0  0  0  0  0  0
    5.9426   -0.3201   17.8135 H   0  0  0  0  0  0
    7.5912   -0.6604   19.5923 H   0  0  0  0  0  0
    6.2775   -0.6562   22.6889 H   0  0  0  0  0  0
    6.4561   -2.2104   21.9009 H   0  0  0  0  0  0
    7.3441   -1.5945   24.7635 H   0  0  0  0  0  0
    5.8722   -2.4407   24.4691 H   0  0  0  0  0  0
    8.1367   -5.9882   27.1778 H   0  0  0  0  0  0
    8.4742   -5.6363   25.5416 H   0  0  0  0  0  0
    7.9373   -4.3309   26.6266 H   0  0  0  0  0  0
  1  2  1  0  0  0
  1 33  1  0  0  0
  1 34  1  0  0  0
  1 35  1  0  0  0
  2 31  2  0  0  0
  2  3  1  0  0  0
  3  4  2  0  0  0
  3 36  1  0  0  0
  4  5  1  0  0  0
  4  6  1  0  0  0
  5 37  1  0  0  0
  5 38  1  0  0  0
  5 39  1  0  0  0
  6  7  1  0  0  0
  6  8  2  0  0  0
  7 40  1  0  0  0
  7 41  1  0  0  0
  7 42  1  0  0  0
  8  9  1  0  0  0
  8 31  1  0  0  0
  9 10  2  0  0  0
  9 11  2  0  0  0
  9 12  1  0  0  0
 12 30  1  0  0  0
 12 13  1  0  0  0
 13 14  1  0  0  0
 13 43  1  0  0  0
 13 44  1  0  0  0
 14 15  1  0  0  0
 14 45  1  0  0  0
 14 46  1  0  0  0
 15 16  1  0  0  0
 15 29  1  0  0  0
 16 17  2  0  0  0
 16 18  1  0  0  0
 18 28  1  0  0  0
 18 19  2  0  0  0
 19 20  1  0  0  0
 19 47  1  0  0  0
 20 21  2  0  0  0
 20 22  1  0  0  0
 22 23  1  0  0  0
 22 48  1  0  0  0
 23 28  2  0  0  0
 23 24  1  0  0  0
 24 25  2  0  0  0
 24 49  1  0  0  0
 25 26  1  0  0  0
 25 50  1  0  0  0
 26 27  2  0  0  0
 26 51  1  0  0  0
 27 28  1  0  0  0
 27 52  1  0  0  0
 29 30  1  0  0  0
 29 53  1  0  0  0
 29 54  1  0  0  0
 30 55  1  0  0  0
 30 56  1  0  0  0
 31 32  1  0  0  0
 32 57  1  0  0  0
 32 58  1  0  0  0
 32 59  1  0  0  0
M  END
> <r_i_docking_score>
-4.88550834259097

$$$$
ligprep_5.maegz:461
                    3D
 Schrodinger Suite 2020-4.
 44 47  0  0  1  0            999 V2000
    6.2643   -0.0939   25.6300 O   0  0  0  0  0  0
    7.0221   -0.3676   24.6964 C   0  0  0  0  0  0
    6.9602   -1.6900   24.1007 C   0  0  0  0  0  0
    6.3393   -1.8311   22.8920 C   0  0  0  0  0  0
    6.2257   -3.0837   22.1564 C   0  0  0  0  0  0
    5.5696   -3.2535   21.1314 O   0  0  0  0  0  0
    6.8923   -4.1072   22.7258 N   0  0  0  0  0  0
    7.5543   -4.0877   23.9597 C   0  0  0  0  0  0
    8.1298   -5.2529   24.4549 C   0  0  0  0  0  0
    8.7655   -5.2430   25.6978 C   0  0  0  0  0  0
    8.8140   -4.0663   26.4442 C   0  0  0  0  0  0
    8.2425   -2.8934   25.9508 C   0  0  0  0  0  0
    7.6039   -2.8935   24.7002 C   0  0  0  0  0  0
    7.9908    0.4876   24.2543 N   0  0  0  0  0  0
    8.8454    0.1977   23.0821 C   0  0  0  0  0  0
   10.2418    0.8116   23.3149 C   0  0  0  0  0  0
   10.2621    2.2640   23.5821 N   0  0  0  0  0  0
   11.3264    3.0981   23.2137 C   0  0  0  0  0  0
   11.2420    4.4944   23.3544 C   0  0  0  0  0  0
   12.2983    5.3212   22.9863 C   0  0  0  0  0  0
   13.4564    4.7673   22.4539 C   0  0  0  0  0  0
   13.5697    3.3915   22.3080 C   0  0  0  0  0  0
   12.5251    2.5654   22.7078 C   0  0  0  0  0  0
    8.9915    2.7616   24.1478 C   0  0  0  0  0  0
    8.1975    1.7449   25.0001 C   0  0  0  0  0  0
    5.8739   -0.9754   22.4185 H   0  0  0  0  0  0
    6.8256   -4.9683   22.2091 H   0  0  0  0  0  0
    8.1057   -6.1608   23.8734 H   0  0  0  0  0  0
    9.2254   -6.1417   26.0821 H   0  0  0  0  0  0
    9.3079   -4.0662   27.4063 H   0  0  0  0  0  0
    8.2950   -1.9916   26.5443 H   0  0  0  0  0  0
    9.0094   -0.8714   22.9438 H   0  0  0  0  0  0
    8.4117    0.6177   22.1738 H   0  0  0  0  0  0
   10.8643    0.5447   22.4614 H   0  0  0  0  0  0
   10.6772    0.3389   24.1982 H   0  0  0  0  0  0
   10.3542    4.9729   23.7338 H   0  0  0  0  0  0
   12.2137    6.3896   23.1075 H   0  0  0  0  0  0
   14.2750    5.4095   22.1630 H   0  0  0  0  0  0
   14.4749    2.9602   21.9087 H   0  0  0  0  0  0
   12.6729    1.5030   22.6054 H   0  0  0  0  0  0
    8.3688    3.0197   23.2896 H   0  0  0  0  0  0
    9.1346    3.6593   24.7479 H   0  0  0  0  0  0
    7.2430    2.2122   25.2521 H   0  0  0  0  0  0
    8.7593    1.5459   25.9146 H   0  0  0  0  0  0
  1  2  2  0  0  0
  2  3  1  0  0  0
  2 14  1  0  0  0
  3 13  1  0  0  0
  3  4  2  0  0  0
  4  5  1  0  0  0
  4 26  1  0  0  0
  5  6  2  0  0  0
  5  7  1  0  0  0
  7  8  1  0  0  0
  7 27  1  0  0  0
  8 13  2  0  0  0
  8  9  1  0  0  0
  9 10  2  0  0  0
  9 28  1  0  0  0
 10 11  1  0  0  0
 10 29  1  0  0  0
 11 12  2  0  0  0
 11 30  1  0  0  0
 12 13  1  0  0  0
 12 31  1  0  0  0
 14 25  1  0  0  0
 14 15  1  0  0  0
 15 16  1  0  0  0
 15 32  1  0  0  0
 15 33  1  0  0  0
 16 17  1  0  0  0
 16 34  1  0  0  0
 16 35  1  0  0  0
 17 18  1  0  0  0
 17 24  1  0  0  0
 18 23  2  0  0  0
 18 19  1  0  0  0
 19 20  2  0  0  0
 19 36  1  0  0  0
 20 21  1  0  0  0
 20 37  1  0  0  0
 21 22  2  0  0  0
 21 38  1  0  0  0
 22 23  1  0  0  0
 22 39  1  0  0  0
 23 40  1  0  0  0
 24 25  1  0  0  0
 24 41  1  0  0  0
 24 42  1  0  0  0
 25 43  1  0  0  0
 25 44  1  0  0  0
M  END
> <r_i_docking_score>
-6.71256478509668

$$$$
ligprep_5.maegz:462
                    3D
 Schrodinger Suite 2020-4.
 47 50  0  0  1  0            999 V2000
    7.5661   -5.0007   22.8947 C   0  0  0  0  0  0
    6.1308   -4.9975   23.1425 N   0  0  0  0  0  0
    5.4117   -6.0624   22.7809 N   0  0  0  0  0  0
    4.0993   -5.7918   23.1122 N   0  0  0  0  0  0
    4.0629   -4.5773   23.6191 C   0  0  0  0  0  0
    5.3218   -3.9926   23.6374 C   0  0  0  0  0  0
    5.7979   -2.6173   24.0766 C   0  0  0  0  0  0
    6.3682   -1.7471   22.9472 C   0  0  0  0  0  0
    6.5666   -2.2235   21.8297 O   0  0  0  0  0  0
    6.6559   -0.4759   23.2803 N   0  0  0  0  0  0
    7.3335    0.5489   22.4648 C   0  0  2  0  0  0
    6.7160    0.7713   21.0759 C   0  0  0  0  0  0
    5.7137    1.7342   20.8963 C   0  0  0  0  0  0
    5.1418    1.9243   19.6372 C   0  0  0  0  0  0
    5.5690    1.1475   18.5614 C   0  0  0  0  0  0
    6.5740    0.2019   18.7299 C   0  0  0  0  0  0
    7.1610    0.0330   19.9752 C   0  0  0  0  0  0
    8.8589    0.3663   22.4539 C   0  0  0  0  0  0
    9.4593   -0.7949   22.3295 N   0  0  0  0  0  0
   10.7939   -0.5177   22.3732 C   0  0  0  0  0  0
   11.8783   -1.3951   22.2434 C   0  0  0  0  0  0
   13.1636   -0.8573   22.3080 C   0  0  0  0  0  0
   13.3661    0.5027   22.5562 C   0  0  0  0  0  0
   12.3057    1.3986   22.7080 C   0  0  0  0  0  0
   11.0169    0.8666   22.5753 C   0  0  0  0  0  0
    9.7517    1.4237   22.5524 N   0  0  0  0  0  0
    9.4339    2.8367   22.7234 C   0  0  0  0  0  0
    7.7497   -4.7434   21.8521 H   0  0  0  0  0  0
    7.9782   -5.9899   23.0989 H   0  0  0  0  0  0
    8.0598   -4.2702   23.5327 H   0  0  0  0  0  0
    3.1439   -4.1215   23.9535 H   0  0  0  0  0  0
    4.9726   -2.0686   24.5310 H   0  0  0  0  0  0
    6.5656   -2.7070   24.8466 H   0  0  0  0  0  0
    6.4362   -0.1912   24.2250 H   0  0  0  0  0  0
    7.1283    1.4464   23.0485 H   0  0  0  0  0  0
    5.3654    2.3330   21.7262 H   0  0  0  0  0  0
    4.3750    2.6736   19.4942 H   0  0  0  0  0  0
    5.1233    1.2902   17.5892 H   0  0  0  0  0  0
    6.9011   -0.4101   17.9080 H   0  0  0  0  0  0
    7.9306   -0.7176   20.0869 H   0  0  0  0  0  0
   11.7200   -2.4501   22.0677 H   0  0  0  0  0  0
   14.0177   -1.5080   22.1838 H   0  0  0  0  0  0
   14.3734    0.8834   22.6106 H   0  0  0  0  0  0
   12.4802    2.4518   22.8651 H   0  0  0  0  0  0
   10.2370    3.4486   22.3070 H   0  0  0  0  0  0
    8.5168    3.0867   22.1873 H   0  0  0  0  0  0
    9.3205    3.0591   23.7854 H   0  0  0  0  0  0
  1  2  1  0  0  0
  1 28  1  0  0  0
  1 29  1  0  0  0
  1 30  1  0  0  0
  2  6  1  0  0  0
  2  3  1  0  0  0
  3  4  2  0  0  0
  4  5  1  0  0  0
  5  6  2  0  0  0
  5 31  1  0  0  0
  6  7  1  0  0  0
  7  8  1  0  0  0
  7 32  1  0  0  0
  7 33  1  0  0  0
  8  9  2  0  0  0
  8 10  1  0  0  0
 10 11  1  0  0  0
 10 34  1  0  0  0
 11 12  1  0  0  0
 11 18  1  0  0  0
 11 35  1  0  0  0
 12 17  2  0  0  0
 12 13  1  0  0  0
 13 14  2  0  0  0
 13 36  1  0  0  0
 14 15  1  0  0  0
 14 37  1  0  0  0
 15 16  2  0  0  0
 15 38  1  0  0  0
 16 17  1  0  0  0
 16 39  1  0  0  0
 17 40  1  0  0  0
 18 26  1  0  0  0
 18 19  2  0  0  0
 19 20  1  0  0  0
 20 25  2  0  0  0
 20 21  1  0  0  0
 21 22  2  0  0  0
 21 41  1  0  0  0
 22 23  1  0  0  0
 22 42  1  0  0  0
 23 24  2  0  0  0
 23 43  1  0  0  0
 24 25  1  0  0  0
 24 44  1  0  0  0
 25 26  1  0  0  0
 26 27  1  0  0  0
 27 45  1  0  0  0
 27 46  1  0  0  0
 27 47  1  0  0  0
M  END
> <r_i_docking_score>
-6.04315354086264

$$$$
ligprep_5.maegz:463
                    3D
 Schrodinger Suite 2020-4.
 52 54  0  0  1  0            999 V2000
   12.1405   -1.7463   22.5299 C   0  0  0  0  0  0
   11.6625   -0.2778   22.5257 C   0  0  0  0  0  0
   10.2260    0.0043   23.0606 C   0  0  0  0  0  0
   10.1699   -0.3592   24.5639 C   0  0  0  0  0  0
    9.9420    1.5203   22.9152 C   0  0  0  0  0  0
    9.1792   -0.7983   22.2278 C   0  0  0  0  0  0
    7.6965   -0.7080   22.6834 C   0  0  0  0  0  0
    6.7771   -1.6373   21.9819 N   0  0  0  0  0  0
    6.8192   -1.5579   20.5074 C   0  0  0  0  0  0
    6.2029   -0.3055   19.9061 C   0  0  0  0  0  0
    6.2153   -0.0324   18.5347 C   0  0  0  0  0  0
    5.5698    1.1435   18.1764 C   0  0  0  0  0  0
    4.8988    1.9471   19.5461 S   0  0  0  0  0  0
    5.5461    0.7208   20.5821 C   0  0  0  0  0  0
    5.8412   -2.4306   22.5832 C   0  0  0  0  0  0
    5.1704   -3.2523   21.9518 O   0  0  0  0  0  0
    5.5293   -2.2987   24.0842 C   0  0  0  0  0  0
    5.9425   -3.4436   24.8993 N   0  0  0  0  0  0
    5.0234   -4.1164   25.6215 N   0  0  0  0  0  0
    5.6705   -5.0584   26.3938 N   0  0  0  0  0  0
    7.0054   -4.9348   26.1523 C   0  0  0  0  0  0
    8.0956   -5.6142   26.7109 C   0  0  0  0  0  0
    9.3748   -5.2525   26.2835 C   0  0  0  0  0  0
    9.5671   -4.2831   25.3034 C   0  0  0  0  0  0
    8.4953   -3.6039   24.7219 C   0  0  0  0  0  0
    7.2140   -3.9272   25.1779 C   0  0  0  0  0  0
   13.1948   -1.8078   22.2609 H   0  0  0  0  0  0
   12.0294   -2.2170   23.5065 H   0  0  0  0  0  0
   11.5988   -2.3549   21.8058 H   0  0  0  0  0  0
   11.7370    0.0978   21.5081 H   0  0  0  0  0  0
   12.3800    0.3105   23.0994 H   0  0  0  0  0  0
   10.9712    0.1267   25.1220 H   0  0  0  0  0  0
    9.2352   -0.0513   25.0339 H   0  0  0  0  0  0
   10.2789   -1.4300   24.7173 H   0  0  0  0  0  0
   10.6748    2.1188   23.4599 H   0  0  0  0  0  0
    9.9763    1.8414   21.8729 H   0  0  0  0  0  0
    8.9601    1.7915   23.3059 H   0  0  0  0  0  0
    9.4598   -1.8503   22.1885 H   0  0  0  0  0  0
    9.2536   -0.4448   21.1981 H   0  0  0  0  0  0
    7.3403    0.3154   22.5812 H   0  0  0  0  0  0
    7.6884   -0.8962   23.7516 H   0  0  0  0  0  0
    6.3334   -2.4272   20.0625 H   0  0  0  0  0  0
    7.8548   -1.6511   20.1881 H   0  0  0  0  0  0
    6.6787   -0.6981   17.8236 H   0  0  0  0  0  0
    5.4400    1.5625   17.1892 H   0  0  0  0  0  0
    5.3518    0.7851   21.6421 H   0  0  0  0  0  0
    5.9306   -1.3972   24.5405 H   0  0  0  0  0  0
    4.4483   -2.1805   24.1665 H   0  0  0  0  0  0
    7.9515   -6.3816   27.4584 H   0  0  0  0  0  0
   10.2441   -5.7313   26.7073 H   0  0  0  0  0  0
   10.5751   -4.0540   24.9875 H   0  0  0  0  0  0
    8.6595   -2.8673   23.9594 H   0  0  0  0  0  0
  1  2  1  0  0  0
  1 27  1  0  0  0
  1 28  1  0  0  0
  1 29  1  0  0  0
  2  3  1  0  0  0
  2 30  1  0  0  0
  2 31  1  0  0  0
  3  4  1  0  0  0
  3  5  1  0  0  0
  3  6  1  0  0  0
  4 32  1  0  0  0
  4 33  1  0  0  0
  4 34  1  0  0  0
  5 35  1  0  0  0
  5 36  1  0  0  0
  5 37  1  0  0  0
  6  7  1  0  0  0
  6 38  1  0  0  0
  6 39  1  0  0  0
  7  8  1  0  0  0
  7 40  1  0  0  0
  7 41  1  0  0  0
  8  9  1  0  0  0
  8 15  1  0  0  0
  9 10  1  0  0  0
  9 42  1  0  0  0
  9 43  1  0  0  0
 10 14  2  0  0  0
 10 11  1  0  0  0
 11 12  2  0  0  0
 11 44  1  0  0  0
 12 13  1  0  0  0
 12 45  1  0  0  0
 13 14  1  0  0  0
 14 46  1  0  0  0
 15 16  2  0  0  0
 15 17  1  0  0  0
 17 18  1  0  0  0
 17 47  1  0  0  0
 17 48  1  0  0  0
 18 26  1  0  0  0
 18 19  1  0  0  0
 19 20  2  0  0  0
 20 21  1  0  0  0
 21 26  2  0  0  0
 21 22  1  0  0  0
 22 23  2  0  0  0
 22 49  1  0  0  0
 23 24  1  0  0  0
 23 50  1  0  0  0
 24 25  2  0  0  0
 24 51  1  0  0  0
 25 26  1  0  0  0
 25 52  1  0  0  0
M  END
> <r_i_docking_score>
-6.76293466336945

$$$$
ligprep_5.maegz:464
                    3D
 Schrodinger Suite 2020-4.
 26 27  0  0  1  0            999 V2000
   13.0764    0.6555   23.4436 O   0  0  0  0  0  0
   11.8666    0.8767   23.5066 C   0  0  0  0  0  0
   11.2860    2.0810   23.3294 N   0  0  0  0  0  0
   11.9214    3.3126   23.1079 C   0  0  0  0  0  0
   13.1696    3.4315   22.4737 C   0  0  0  0  0  0
   13.8019    4.6182   22.3043 N   0  0  0  0  0  0
   13.1693    5.7378   22.7187 C   0  0  0  0  0  0
   11.9223    5.7199   23.3442 C   0  0  0  0  0  0
   11.2947    4.4907   23.5482 C   0  0  0  0  0  0
    9.7575    4.4646   24.3472 Cl  0  0  0  0  0  0
   10.8968   -0.2354   23.7940 C   0  0  0  0  0  0
   10.0111   -0.1264   24.8803 C   0  0  0  0  0  0
    9.1018   -1.1464   25.1576 C   0  0  0  0  0  0
    8.0524   -1.0190   26.5236 Cl  0  0  0  0  0  0
    9.0508   -2.2730   24.3378 C   0  0  0  0  0  0
    9.9154   -2.3845   23.2513 C   0  0  0  0  0  0
   10.8498   -1.3838   22.9834 C   0  0  0  0  0  0
   11.6873   -1.5516   21.9092 O   0  0  0  0  0  0
   10.2809    2.1216   23.4185 H   0  0  0  0  0  0
   13.7058    2.5745   22.0963 H   0  0  0  0  0  0
   13.7039    6.6652   22.5759 H   0  0  0  0  0  0
   11.4590    6.6389   23.6739 H   0  0  0  0  0  0
   10.0328    0.7400   25.5300 H   0  0  0  0  0  0
    8.3387   -3.0605   24.5471 H   0  0  0  0  0  0
    9.8575   -3.2526   22.6132 H   0  0  0  0  0  0
   11.4120   -2.2489   21.3059 H   0  0  0  0  0  0
  1  2  2  0  0  0
  2  3  1  0  0  0
  2 11  1  0  0  0
  3  4  1  0  0  0
  3 19  1  0  0  0
  4  9  2  0  0  0
  4  5  1  0  0  0
  5  6  2  0  0  0
  5 20  1  0  0  0
  6  7  1  0  0  0
  7  8  2  0  0  0
  7 21  1  0  0  0
  8  9  1  0  0  0
  8 22  1  0  0  0
  9 10  1  0  0  0
 11 17  2  0  0  0
 11 12  1  0  0  0
 12 13  2  0  0  0
 12 23  1  0  0  0
 13 14  1  0  0  0
 13 15  1  0  0  0
 15 16  2  0  0  0
 15 24  1  0  0  0
 16 17  1  0  0  0
 16 25  1  0  0  0
 17 18  1  0  0  0
 18 26  1  0  0  0
M  END
> <r_i_docking_score>
-5.70994770870461

$$$$
ligprep_5.maegz:465
                    3D
 Schrodinger Suite 2020-4.
 35 37  0  0  1  0            999 V2000
    8.5526    0.5263   22.4502 O   0  0  0  0  0  0
    8.1631   -0.6033   22.1486 C   0  0  0  0  0  0
    7.3995   -0.8816   21.0707 N   0  0  0  0  0  0
    6.6738    0.0251   20.2814 C   0  0  0  0  0  0
    6.2167    1.2701   20.7489 C   0  0  0  0  0  0
    5.4521    2.0813   19.9112 C   0  0  0  0  0  0
    5.1691    1.6305   18.6248 C   0  0  0  0  0  0
    5.5834    0.4295   18.1530 N   0  0  0  0  0  0
    6.3253   -0.3529   18.9804 C   0  0  0  0  0  0
    8.4787   -1.7938   23.0234 C   0  0  0  0  0  0
    7.4132   -2.6211   23.4218 C   0  0  0  0  0  0
    7.6203   -3.7156   24.2571 C   0  0  0  0  0  0
    6.2914   -4.7104   24.7278 Cl  0  0  0  0  0  0
    8.9014   -4.0054   24.7075 C   0  0  0  0  0  0
    9.9694   -3.2061   24.3079 C   0  0  0  0  0  0
    9.7879   -2.0914   23.4806 C   0  0  0  0  0  0
   11.0065   -1.3184   23.0971 C   0  0  0  0  0  0
   11.9653   -1.9047   22.2648 C   0  0  0  0  0  0
   13.1211   -1.2152   21.9080 C   0  0  0  0  0  0
   13.3201    0.0781   22.3873 C   0  0  0  0  0  0
   12.3805    0.6752   23.2256 C   0  0  0  0  0  0
   11.2329   -0.0279   23.5871 C   0  0  0  0  0  0
    7.3032   -1.8543   20.8231 H   0  0  0  0  0  0
    6.4268    1.6120   21.7511 H   0  0  0  0  0  0
    5.1036    3.0509   20.2412 H   0  0  0  0  0  0
    4.6103    2.2502   17.9387 H   0  0  0  0  0  0
    6.6457   -1.2962   18.5634 H   0  0  0  0  0  0
    6.4018   -2.4079   23.1008 H   0  0  0  0  0  0
    9.0724   -4.8577   25.3508 H   0  0  0  0  0  0
   10.9614   -3.4655   24.6508 H   0  0  0  0  0  0
   11.8040   -2.8967   21.8747 H   0  0  0  0  0  0
   13.8484   -1.6743   21.2535 H   0  0  0  0  0  0
   14.2077    0.6246   22.1033 H   0  0  0  0  0  0
   12.5423    1.6777   23.5953 H   0  0  0  0  0  0
   10.5085    0.4371   24.2399 H   0  0  0  0  0  0
  1  2  2  0  0  0
  2  3  1  0  0  0
  2 10  1  0  0  0
  3  4  1  0  0  0
  3 23  1  0  0  0
  4  9  2  0  0  0
  4  5  1  0  0  0
  5  6  2  0  0  0
  5 24  1  0  0  0
  6  7  1  0  0  0
  6 25  1  0  0  0
  7  8  2  0  0  0
  7 26  1  0  0  0
  8  9  1  0  0  0
  9 27  1  0  0  0
 10 16  2  0  0  0
 10 11  1  0  0  0
 11 12  2  0  0  0
 11 28  1  0  0  0
 12 13  1  0  0  0
 12 14  1  0  0  0
 14 15  2  0  0  0
 14 29  1  0  0  0
 15 16  1  0  0  0
 15 30  1  0  0  0
 16 17  1  0  0  0
 17 22  2  0  0  0
 17 18  1  0  0  0
 18 19  2  0  0  0
 18 31  1  0  0  0
 19 20  1  0  0  0
 19 32  1  0  0  0
 20 21  2  0  0  0
 20 33  1  0  0  0
 21 22  1  0  0  0
 21 34  1  0  0  0
 22 35  1  0  0  0
M  END
> <r_i_docking_score>
-6.20953775528995

$$$$
ligprep_5.maegz:466
                    3D
 Schrodinger Suite 2020-4.
 49 51  0  0  1  0            999 V2000
    6.3537   -0.5248   23.1743 O   0  0  0  0  0  0
    7.1957   -0.9549   22.3839 C   0  0  0  0  0  0
    7.1841   -0.5958   21.0751 N   0  0  0  0  0  0
    6.3608    0.3328   20.4137 C   0  0  0  0  0  0
    6.2778    0.2361   19.0182 C   0  0  0  0  0  0
    5.4935    1.1467   18.3075 C   0  0  0  0  0  0
    4.8076    2.1341   19.0175 C   0  0  0  0  0  0
    4.8818    2.2578   20.3663 N   0  0  0  0  0  0
    5.6519    1.3688   21.0426 C   0  0  0  0  0  0
    8.1850   -1.8393   22.7566 N   0  0  0  0  0  0
    9.1788   -2.3735   21.7815 C   0  0  0  0  0  0
   10.6595   -2.2544   22.2197 C   0  0  0  0  0  0
   11.2314   -0.8104   22.2813 C   0  0  0  0  0  0
   10.7253    0.0045   23.4993 C   0  0  0  0  0  0
   11.3083    1.4257   23.5415 C   0  0  0  0  0  0
   12.8410    1.3784   23.5692 C   0  0  0  0  0  0
   13.4104    0.5667   22.3992 C   0  0  0  0  0  0
   12.7794   -0.8381   22.2760 C   0  0  0  0  0  0
    8.2547   -2.3678   24.0859 C   0  0  0  0  0  0
    8.0902   -1.5514   25.2242 C   0  0  0  0  0  0
    8.2190   -2.0789   26.5093 C   0  0  0  0  0  0
    8.5088   -3.4310   26.6830 C   0  0  0  0  0  0
    8.6947   -4.2498   25.5744 C   0  0  0  0  0  0
    9.1145   -5.9059   25.7972 Cl  0  0  0  0  0  0
    8.5557   -3.7277   24.2891 C   0  0  0  0  0  0
    7.8430   -1.0697   20.4770 H   0  0  0  0  0  0
    6.8144   -0.5330   18.4789 H   0  0  0  0  0  0
    5.4185    1.0899   17.2307 H   0  0  0  0  0  0
    4.2110    2.8707   18.4965 H   0  0  0  0  0  0
    5.6826    1.5190   22.1131 H   0  0  0  0  0  0
    9.1332   -1.8737   20.8149 H   0  0  0  0  0  0
    8.9237   -3.4108   21.5636 H   0  0  0  0  0  0
   11.2467   -2.8386   21.5077 H   0  0  0  0  0  0
   10.8325   -2.7631   23.1704 H   0  0  0  0  0  0
   10.9287   -0.2701   21.3867 H   0  0  0  0  0  0
   10.9795   -0.5227   24.4224 H   0  0  0  0  0  0
    9.6420    0.0847   23.4992 H   0  0  0  0  0  0
   10.9349    1.9633   24.4144 H   0  0  0  0  0  0
   10.9717    1.9904   22.6709 H   0  0  0  0  0  0
   13.1695    0.9232   24.5010 H   0  0  0  0  0  0
   13.2440    2.3917   23.5316 H   0  0  0  0  0  0
   14.4932    0.4906   22.4814 H   0  0  0  0  0  0
   13.2232    1.1462   21.5072 H   0  0  0  0  0  0
   13.1492   -1.3483   21.3860 H   0  0  0  0  0  0
   13.1225   -1.4521   23.1035 H   0  0  0  0  0  0
    7.8867   -0.4929   25.1240 H   0  0  0  0  0  0
    8.1012   -1.4326   27.3677 H   0  0  0  0  0  0
    8.6066   -3.8487   27.6754 H   0  0  0  0  0  0
    8.6970   -4.3951   23.4505 H   0  0  0  0  0  0
  1  2  2  0  0  0
  2  3  1  0  0  0
  2 10  1  0  0  0
  3  4  1  0  0  0
  3 26  1  0  0  0
  4  9  2  0  0  0
  4  5  1  0  0  0
  5  6  2  0  0  0
  5 27  1  0  0  0
  6  7  1  0  0  0
  6 28  1  0  0  0
  7  8  2  0  0  0
  7 29  1  0  0  0
  8  9  1  0  0  0
  9 30  1  0  0  0
 10 11  1  0  0  0
 10 19  1  0  0  0
 11 12  1  0  0  0
 11 31  1  0  0  0
 11 32  1  0  0  0
 12 13  1  0  0  0
 12 33  1  0  0  0
 12 34  1  0  0  0
 13 18  1  0  0  0
 13 14  1  0  0  0
 13 35  1  0  0  0
 14 15  1  0  0  0
 14 36  1  0  0  0
 14 37  1  0  0  0
 15 16  1  0  0  0
 15 38  1  0  0  0
 15 39  1  0  0  0
 16 17  1  0  0  0
 16 40  1  0  0  0
 16 41  1  0  0  0
 17 18  1  0  0  0
 17 42  1  0  0  0
 17 43  1  0  0  0
 18 44  1  0  0  0
 18 45  1  0  0  0
 19 25  2  0  0  0
 19 20  1  0  0  0
 20 21  2  0  0  0
 20 46  1  0  0  0
 21 22  1  0  0  0
 21 47  1  0  0  0
 22 23  2  0  0  0
 22 48  1  0  0  0
 23 24  1  0  0  0
 23 25  1  0  0  0
 25 49  1  0  0  0
M  END
> <r_i_docking_score>
-6.0115727729327

$$$$
ligprep_5.maegz:467
                    3D
 Schrodinger Suite 2020-4.
 33 34  0  0  1  0            999 V2000
    5.7947    2.8207   21.2770 C   0  0  0  0  0  0
    6.0439    1.6249   20.3538 C   0  0  0  0  0  0
    5.3193    1.4677   19.1541 C   0  0  0  0  0  0
    4.3697    2.3891   18.7096 N   0  0  0  0  0  0
    5.5697    0.3474   18.3665 C   0  0  0  0  0  0
    6.4471   -0.6206   18.7076 N   0  0  0  0  0  0
    7.1579   -0.4527   19.8445 C   0  0  0  0  0  0
    7.0200    0.6617   20.6887 C   0  0  0  0  0  0
    7.8083    0.8608   21.8427 N   0  0  0  0  0  0
    8.9930    0.2987   22.1653 C   0  0  0  0  0  0
    9.5581   -0.5761   21.5094 O   0  0  0  0  0  0
    9.6802    0.8350   23.4295 C   0  0  0  0  0  0
   11.0690    1.3773   23.1035 C   0  0  0  0  0  0
   12.1383    0.4944   22.9152 C   0  0  0  0  0  0
   13.3840    0.9732   22.5149 C   0  0  0  0  0  0
   13.5695    2.3404   22.3079 C   0  0  0  0  0  0
   12.5195    3.2315   22.5217 C   0  0  0  0  0  0
   12.7724    4.9247   22.3068 Cl  0  0  0  0  0  0
   11.2674    2.7498   22.9074 C   0  0  0  0  0  0
    6.7250    3.3507   21.4870 H   0  0  0  0  0  0
    5.0986    3.5486   20.8657 H   0  0  0  0  0  0
    5.3950    2.4759   22.2309 H   0  0  0  0  0  0
    4.4849    3.3449   19.0333 H   0  0  0  0  0  0
    3.9817    2.2731   17.7743 H   0  0  0  0  0  0
    5.0402    0.1944   17.4395 H   0  0  0  0  0  0
    7.8507   -1.2520   20.0473 H   0  0  0  0  0  0
    7.4735    1.5896   22.4523 H   0  0  0  0  0  0
    9.0758    1.6092   23.9031 H   0  0  0  0  0  0
    9.7634    0.0193   24.1484 H   0  0  0  0  0  0
   11.9945   -0.5686   23.0478 H   0  0  0  0  0  0
   14.2002    0.2863   22.3503 H   0  0  0  0  0  0
   14.5359    2.7088   21.9949 H   0  0  0  0  0  0
   10.4483    3.4430   23.0330 H   0  0  0  0  0  0
  1  2  1  0  0  0
  1 20  1  0  0  0
  1 21  1  0  0  0
  1 22  1  0  0  0
  2  8  2  0  0  0
  2  3  1  0  0  0
  3  4  1  0  0  0
  3  5  2  0  0  0
  4 23  1  0  0  0
  4 24  1  0  0  0
  5  6  1  0  0  0
  5 25  1  0  0  0
  6  7  2  0  0  0
  7  8  1  0  0  0
  7 26  1  0  0  0
  8  9  1  0  0  0
  9 10  1  0  0  0
  9 27  1  0  0  0
 10 11  2  0  0  0
 10 12  1  0  0  0
 12 13  1  0  0  0
 12 28  1  0  0  0
 12 29  1  0  0  0
 13 19  2  0  0  0
 13 14  1  0  0  0
 14 15  2  0  0  0
 14 30  1  0  0  0
 15 16  1  0  0  0
 15 31  1  0  0  0
 16 17  2  0  0  0
 16 32  1  0  0  0
 17 18  1  0  0  0
 17 19  1  0  0  0
 19 33  1  0  0  0
M  END
> <r_i_docking_score>
-6.80322337349891

$$$$
ligprep_5.maegz:468
                    3D
 Schrodinger Suite 2020-4.
 31 32  0  0  1  0            999 V2000
    6.2835   -0.9398   18.3075 C   0  0  0  0  0  0
    5.9105    0.2042   19.2384 C   0  0  0  0  0  0
    5.1699    1.2674   18.7113 C   0  0  0  0  0  0
    4.8466    2.3463   19.5313 C   0  0  0  0  0  0
    5.2418    2.4302   20.8241 N   0  0  0  0  0  0
    5.9701    1.4057   21.3289 C   0  0  0  0  0  0
    6.3042    0.2644   20.5936 C   0  0  0  0  0  0
    7.0197   -0.7324   21.2724 N   0  0  0  0  0  0
    6.5898   -1.9902   21.4826 C   0  0  0  0  0  0
    5.5698   -2.4675   20.9789 O   0  0  0  0  0  0
    7.4521   -2.8386   22.4321 C   0  0  0  0  0  0
    6.7212   -4.0965   22.8897 C   0  0  0  0  0  0
    7.0938   -5.3444   22.3844 C   0  0  0  0  0  0
    6.3435   -6.4724   22.7039 C   0  0  0  0  0  0
    5.2158   -6.3657   23.5179 C   0  0  0  0  0  0
    4.8502   -5.1268   24.0395 C   0  0  0  0  0  0
    3.4489   -4.9862   25.0356 Cl  0  0  0  0  0  0
    5.6063   -3.9961   23.7337 C   0  0  0  0  0  0
    5.8139   -1.8734   18.6067 H   0  0  0  0  0  0
    5.9695   -0.7389   17.2822 H   0  0  0  0  0  0
    7.3633   -1.0880   18.3077 H   0  0  0  0  0  0
    4.8472    1.2642   17.6813 H   0  0  0  0  0  0
    4.2842    3.1836   19.1433 H   0  0  0  0  0  0
    6.2461    1.5022   22.3686 H   0  0  0  0  0  0
    7.8073   -0.4171   21.8161 H   0  0  0  0  0  0
    8.3715   -3.1063   21.9094 H   0  0  0  0  0  0
    7.7364   -2.2504   23.3058 H   0  0  0  0  0  0
    7.9470   -5.4393   21.7266 H   0  0  0  0  0  0
    6.6240   -7.4369   22.3062 H   0  0  0  0  0  0
    4.6300   -7.2457   23.7412 H   0  0  0  0  0  0
    5.2992   -3.0317   24.1123 H   0  0  0  0  0  0
  1  2  1  0  0  0
  1 19  1  0  0  0
  1 20  1  0  0  0
  1 21  1  0  0  0
  2  7  2  0  0  0
  2  3  1  0  0  0
  3  4  2  0  0  0
  3 22  1  0  0  0
  4  5  1  0  0  0
  4 23  1  0  0  0
  5  6  2  0  0  0
  6  7  1  0  0  0
  6 24  1  0  0  0
  7  8  1  0  0  0
  8  9  1  0  0  0
  8 25  1  0  0  0
  9 10  2  0  0  0
  9 11  1  0  0  0
 11 12  1  0  0  0
 11 26  1  0  0  0
 11 27  1  0  0  0
 12 18  2  0  0  0
 12 13  1  0  0  0
 13 14  2  0  0  0
 13 28  1  0  0  0
 14 15  1  0  0  0
 14 29  1  0  0  0
 15 16  2  0  0  0
 15 30  1  0  0  0
 16 17  1  0  0  0
 16 18  1  0  0  0
 18 31  1  0  0  0
M  END
> <r_i_docking_score>
-5.06714630770195

$$$$
ligprep_5.maegz:469
                    3D
 Schrodinger Suite 2020-4.
 30 31  0  0  1  0            999 V2000
    5.9537    1.6892   22.0435 C   0  0  0  0  0  0
    5.9510    0.8860   20.7481 C   0  0  0  0  0  0
    5.7264    1.5556   19.5391 C   0  0  0  0  0  0
    5.7432    0.8297   18.3487 C   0  0  0  0  0  0
    5.9696   -0.5040   18.3082 N   0  0  0  0  0  0
    6.1454   -1.1500   19.4863 C   0  0  0  0  0  0
    6.1474   -0.5073   20.7344 C   0  0  0  0  0  0
    6.3625   -1.1974   21.9471 N   0  0  0  0  0  0
    6.0634   -2.4791   22.2430 C   0  0  0  0  0  0
    5.5694   -3.2873   21.4550 O   0  0  0  0  0  0
    6.3655   -2.7400   23.5307 N   0  0  0  0  0  0
    6.0900   -3.8810   24.3093 C   0  0  0  0  0  0
    6.6846   -3.9231   25.5750 C   0  0  0  0  0  0
    6.4416   -4.9894   26.4425 C   0  0  0  0  0  0
    5.5938   -6.0252   26.0519 C   0  0  0  0  0  0
    5.0034   -6.0028   24.7905 C   0  0  0  0  0  0
    3.9719   -7.3007   24.3082 Cl  0  0  0  0  0  0
    5.2446   -4.9361   23.9213 C   0  0  0  0  0  0
    6.9118    1.5845   22.5544 H   0  0  0  0  0  0
    5.7777    2.7523   21.8672 H   0  0  0  0  0  0
    5.1740    1.3248   22.7117 H   0  0  0  0  0  0
    5.5494    2.6230   19.5159 H   0  0  0  0  0  0
    5.5722    1.3189   17.4000 H   0  0  0  0  0  0
    6.3128   -2.2095   19.3994 H   0  0  0  0  0  0
    6.6598   -0.6078   22.7080 H   0  0  0  0  0  0
    6.8740   -2.0180   24.0179 H   0  0  0  0  0  0
    7.3403   -3.1281   25.8993 H   0  0  0  0  0  0
    6.9088   -5.0128   27.4171 H   0  0  0  0  0  0
    5.4132   -6.8536   26.7239 H   0  0  0  0  0  0
    4.7591   -4.9474   22.9602 H   0  0  0  0  0  0
  1  2  1  0  0  0
  1 19  1  0  0  0
  1 20  1  0  0  0
  1 21  1  0  0  0
  2  7  2  0  0  0
  2  3  1  0  0  0
  3  4  2  0  0  0
  3 22  1  0  0  0
  4  5  1  0  0  0
  4 23  1  0  0  0
  5  6  2  0  0  0
  6  7  1  0  0  0
  6 24  1  0  0  0
  7  8  1  0  0  0
  8  9  1  0  0  0
  8 25  1  0  0  0
  9 10  2  0  0  0
  9 11  1  0  0  0
 11 12  1  0  0  0
 11 26  1  0  0  0
 12 18  2  0  0  0
 12 13  1  0  0  0
 13 14  2  0  0  0
 13 27  1  0  0  0
 14 15  1  0  0  0
 14 28  1  0  0  0
 15 16  2  0  0  0
 15 29  1  0  0  0
 16 17  1  0  0  0
 16 18  1  0  0  0
 18 30  1  0  0  0
M  END
> <r_i_docking_score>
-4.71469313867694

$$$$
ligprep_5.maegz:470
                    3D
 Schrodinger Suite 2020-4.
 34 35  0  0  1  0            999 V2000
    7.2468    1.8865   21.9850 C   0  0  0  0  0  0
    6.6650    1.2670   20.7220 C   0  0  0  0  0  0
    5.6304    1.9467   20.0651 C   0  0  0  0  0  0
    5.1692    1.4624   18.8431 C   0  0  0  0  0  0
    5.6734    0.3504   18.2565 N   0  0  0  0  0  0
    6.6598   -0.3184   18.9070 C   0  0  0  0  0  0
    7.1754    0.0824   20.1449 C   0  0  0  0  0  0
    8.2031   -0.6989   20.7090 N   0  0  0  0  0  0
    8.1785   -1.2694   21.9331 C   0  0  0  0  0  0
    7.2073   -1.2089   22.6883 O   0  0  0  0  0  0
    9.4613   -2.0322   22.3685 C   0  0  2  0  0  0
    9.2681   -2.8736   23.6531 C   0  0  0  0  0  0
   10.6966   -1.1249   22.5035 C   0  0  0  0  0  0
   11.9630   -1.6445   22.2102 C   0  0  0  0  0  0
   13.1026   -0.8431   22.3077 C   0  0  0  0  0  0
   12.9890    0.4882   22.7079 C   0  0  0  0  0  0
   11.7376    1.0083   23.0365 C   0  0  0  0  0  0
   11.5719    2.6592   23.5074 Cl  0  0  0  0  0  0
   10.6059    0.1982   22.9604 C   0  0  0  0  0  0
    6.9309    2.9246   22.1161 H   0  0  0  0  0  0
    6.9574    1.3170   22.8695 H   0  0  0  0  0  0
    8.3354    1.9026   21.9212 H   0  0  0  0  0  0
    5.2235    2.8652   20.4651 H   0  0  0  0  0  0
    4.3870    1.9835   18.3082 H   0  0  0  0  0  0
    7.0309   -1.2000   18.4034 H   0  0  0  0  0  0
    8.9548   -0.9671   20.0922 H   0  0  0  0  0  0
    9.6690   -2.7295   21.5555 H   0  0  0  0  0  0
    9.0382   -2.2437   24.5140 H   0  0  0  0  0  0
    8.4538   -3.5928   23.5416 H   0  0  0  0  0  0
   10.1679   -3.4389   23.8965 H   0  0  0  0  0  0
   12.0630   -2.6703   21.8837 H   0  0  0  0  0  0
   14.0689   -1.2535   22.0578 H   0  0  0  0  0  0
   13.8673    1.1159   22.7603 H   0  0  0  0  0  0
    9.6519    0.6149   23.2445 H   0  0  0  0  0  0
  1  2  1  0  0  0
  1 20  1  0  0  0
  1 21  1  0  0  0
  1 22  1  0  0  0
  2  7  2  0  0  0
  2  3  1  0  0  0
  3  4  2  0  0  0
  3 23  1  0  0  0
  4  5  1  0  0  0
  4 24  1  0  0  0
  5  6  2  0  0  0
  6  7  1  0  0  0
  6 25  1  0  0  0
  7  8  1  0  0  0
  8  9  1  0  0  0
  8 26  1  0  0  0
  9 10  2  0  0  0
  9 11  1  0  0  0
 11 12  1  0  0  0
 11 13  1  0  0  0
 11 27  1  0  0  0
 12 28  1  0  0  0
 12 29  1  0  0  0
 12 30  1  0  0  0
 13 19  2  0  0  0
 13 14  1  0  0  0
 14 15  2  0  0  0
 14 31  1  0  0  0
 15 16  1  0  0  0
 15 32  1  0  0  0
 16 17  2  0  0  0
 16 33  1  0  0  0
 17 18  1  0  0  0
 17 19  1  0  0  0
 19 34  1  0  0  0
M  END
> <r_i_docking_score>
-6.0166438575711

$$$$
ligprep_5.maegz:471
                    3D
 Schrodinger Suite 2020-4.
 34 35  0  0  1  0            999 V2000
    5.8097    3.0920   21.5419 C   0  0  0  0  0  0
    6.0030    1.9472   20.5404 C   0  0  0  0  0  0
    5.1688    1.8268   19.4097 C   0  0  0  0  0  0
    4.1591    2.7470   19.1080 N   0  0  0  0  0  0
    5.3845    0.7628   18.5340 C   0  0  0  0  0  0
    6.3568   -0.1617   18.7079 N   0  0  0  0  0  0
    7.1677   -0.0296   19.7821 C   0  0  0  0  0  0
    7.0341    0.9993   20.7301 C   0  0  0  0  0  0
    7.9087    1.1550   21.8272 N   0  0  0  0  0  0
    8.7468    0.2570   22.3887 C   0  0  0  0  0  0
    8.8891   -0.9072   22.0175 O   0  0  0  0  0  0
    9.5710    0.7571   23.5820 C   0  0  0  0  0  0
   10.9899    1.1273   23.1625 C   0  0  0  0  0  0
   11.9484    0.1309   22.9469 C   0  0  0  0  0  0
   13.2337    0.4707   22.5250 C   0  0  0  0  0  0
   13.5689    1.8076   22.3079 C   0  0  0  0  0  0
   12.6197    2.8111   22.5282 C   0  0  0  0  0  0
   12.9579    4.2089   22.3080 C   0  0  0  0  0  0
   13.2229    5.3208   22.1320 N   0  0  0  0  0  0
   11.3313    2.4671   22.9486 C   0  0  0  0  0  0
    4.9032    3.6734   21.3721 H   0  0  0  0  0  0
    5.7401    2.6941   22.5544 H   0  0  0  0  0  0
    6.6598    3.7738   21.5115 H   0  0  0  0  0  0
    3.7455    2.6371   18.1882 H   0  0  0  0  0  0
    4.3709    3.7071   19.3819 H   0  0  0  0  0  0
    4.7701    0.6392   17.6541 H   0  0  0  0  0  0
    7.9450   -0.7757   19.8377 H   0  0  0  0  0  0
    7.8539    2.0581   22.2708 H   0  0  0  0  0  0
    9.6017   -0.0267   24.3400 H   0  0  0  0  0  0
    9.0801    1.6137   24.0481 H   0  0  0  0  0  0
   11.6915   -0.9093   23.0921 H   0  0  0  0  0  0
   13.9655   -0.3040   22.3520 H   0  0  0  0  0  0
   14.5667    2.0553   21.9698 H   0  0  0  0  0  0
   10.5868    3.2378   23.0996 H   0  0  0  0  0  0
  1  2  1  0  0  0
  1 21  1  0  0  0
  1 22  1  0  0  0
  1 23  1  0  0  0
  2  8  2  0  0  0
  2  3  1  0  0  0
  3  4  1  0  0  0
  3  5  2  0  0  0
  4 24  1  0  0  0
  4 25  1  0  0  0
  5  6  1  0  0  0
  5 26  1  0  0  0
  6  7  2  0  0  0
  7  8  1  0  0  0
  7 27  1  0  0  0
  8  9  1  0  0  0
  9 10  1  0  0  0
  9 28  1  0  0  0
 10 11  2  0  0  0
 10 12  1  0  0  0
 12 13  1  0  0  0
 12 29  1  0  0  0
 12 30  1  0  0  0
 13 20  2  0  0  0
 13 14  1  0  0  0
 14 15  2  0  0  0
 14 31  1  0  0  0
 15 16  1  0  0  0
 15 32  1  0  0  0
 16 17  2  0  0  0
 16 33  1  0  0  0
 17 18  1  0  0  0
 17 20  1  0  0  0
 18 19  3  0  0  0
 20 34  1  0  0  0
M  END
> <r_i_docking_score>
-6.89732618773777

$$$$
ligprep_5.maegz:472
                    3D
 Schrodinger Suite 2020-4.
 32 33  0  0  1  0            999 V2000
   10.3276    1.7826   23.7251 C   0  0  0  0  0  0
   11.2990    0.8137   23.0633 C   0  0  0  0  0  0
   12.6634    1.1111   23.1085 C   0  0  0  0  0  0
   13.5696    0.2013   22.5701 C   0  0  0  0  0  0
   13.2042   -0.9905   22.0393 N   0  0  0  0  0  0
   11.8791   -1.2683   21.9834 C   0  0  0  0  0  0
   10.8924   -0.3854   22.4346 C   0  0  0  0  0  0
    9.5598   -0.7478   22.1923 N   0  0  0  0  0  0
    8.6776    0.0077   21.5080 C   0  0  0  0  0  0
    8.9208    1.1500   21.1079 O   0  0  0  0  0  0
    7.3296   -0.6612   21.1971 C   0  0  0  0  0  0
    6.4016    0.2288   20.3753 C   0  0  0  0  0  0
    6.4243    0.1871   18.9769 C   0  0  0  0  0  0
    5.6087    1.0455   18.2393 C   0  0  0  0  0  0
    4.7688    1.9471   18.8928 C   0  0  0  0  0  0
    4.7334    1.9885   20.2875 C   0  0  0  0  0  0
    3.8124    2.8821   20.9759 C   0  0  0  0  0  0
    3.0756    3.5846   21.5276 N   0  0  0  0  0  0
    5.5695    1.1466   21.0233 C   0  0  0  0  0  0
   10.7818    2.2441   24.6032 H   0  0  0  0  0  0
   10.0417    2.5759   23.0324 H   0  0  0  0  0  0
    9.4308    1.2730   24.0792 H   0  0  0  0  0  0
   13.0173    2.0333   23.5459 H   0  0  0  0  0  0
   14.6216    0.4287   22.5602 H   0  0  0  0  0  0
   11.6172   -2.2039   21.5079 H   0  0  0  0  0  0
    9.3194   -1.7133   22.3583 H   0  0  0  0  0  0
    6.8439   -0.9236   22.1379 H   0  0  0  0  0  0
    7.5133   -1.5914   20.6578 H   0  0  0  0  0  0
    7.0822   -0.4971   18.4580 H   0  0  0  0  0  0
    5.6332    1.0202   17.1590 H   0  0  0  0  0  0
    4.1454    2.6106   18.3080 H   0  0  0  0  0  0
    5.5582    1.1807   22.1042 H   0  0  0  0  0  0
  1  2  1  0  0  0
  1 20  1  0  0  0
  1 21  1  0  0  0
  1 22  1  0  0  0
  2  7  2  0  0  0
  2  3  1  0  0  0
  3  4  2  0  0  0
  3 23  1  0  0  0
  4  5  1  0  0  0
  4 24  1  0  0  0
  5  6  2  0  0  0
  6  7  1  0  0  0
  6 25  1  0  0  0
  7  8  1  0  0  0
  8  9  1  0  0  0
  8 26  1  0  0  0
  9 10  2  0  0  0
  9 11  1  0  0  0
 11 12  1  0  0  0
 11 27  1  0  0  0
 11 28  1  0  0  0
 12 19  2  0  0  0
 12 13  1  0  0  0
 13 14  2  0  0  0
 13 29  1  0  0  0
 14 15  1  0  0  0
 14 30  1  0  0  0
 15 16  2  0  0  0
 15 31  1  0  0  0
 16 17  1  0  0  0
 16 19  1  0  0  0
 17 18  3  0  0  0
 19 32  1  0  0  0
M  END
> <r_i_docking_score>
-6.16246934300715

$$$$
ligprep_5.maegz:473
                    3D
 Schrodinger Suite 2020-4.
 35 36  0  0  1  0            999 V2000
    5.7859    3.0385   21.5014 C   0  0  0  0  0  0
    5.9999    1.9101   20.5015 C   0  0  0  0  0  0
    5.1678    1.8340   19.3772 C   0  0  0  0  0  0
    5.3844    0.8167   18.4507 C   0  0  0  0  0  0
    6.3507   -0.1206   18.5944 N   0  0  0  0  0  0
    7.1589   -0.0388   19.6782 C   0  0  0  0  0  0
    7.0293    0.9601   20.6627 C   0  0  0  0  0  0
    7.8901    1.0886   21.7717 N   0  0  0  0  0  0
    8.7377    0.1879   22.3123 C   0  0  0  0  0  0
    8.9009   -0.9563   21.8860 O   0  0  0  0  0  0
    9.5516    0.6430   23.5453 C   0  0  2  0  0  0
    8.8238    1.6647   24.4598 C   0  0  0  0  0  0
   10.9690    1.0568   23.1254 C   0  0  0  0  0  0
   11.9364    0.0631   22.9188 C   0  0  0  0  0  0
   13.2291    0.3978   22.5146 C   0  0  0  0  0  0
   13.5675    1.7336   22.3102 C   0  0  0  0  0  0
   12.6162    2.7398   22.5100 C   0  0  0  0  0  0
   12.9774    4.1347   22.3084 C   0  0  0  0  0  0
   13.2662    5.2437   22.1461 N   0  0  0  0  0  0
   11.3156    2.3992   22.9035 C   0  0  0  0  0  0
    4.9718    3.7025   21.2050 H   0  0  0  0  0  0
    5.5607    2.6353   22.4903 H   0  0  0  0  0  0
    6.6911    3.6416   21.5815 H   0  0  0  0  0  0
    4.3868    2.5647   19.2115 H   0  0  0  0  0  0
    4.7691    0.7436   17.5647 H   0  0  0  0  0  0
    7.9281   -0.7939   19.7166 H   0  0  0  0  0  0
    7.8135    1.9707   22.2542 H   0  0  0  0  0  0
    9.6629   -0.2507   24.1630 H   0  0  0  0  0  0
    8.6053    2.6071   23.9562 H   0  0  0  0  0  0
    7.8779    1.2612   24.8230 H   0  0  0  0  0  0
    9.4253    1.8972   25.3386 H   0  0  0  0  0  0
   11.6785   -0.9769   23.0624 H   0  0  0  0  0  0
   13.9607   -0.3809   22.3526 H   0  0  0  0  0  0
   14.5733    1.9809   21.9916 H   0  0  0  0  0  0
   10.5721    3.1763   23.0298 H   0  0  0  0  0  0
  1  2  1  0  0  0
  1 21  1  0  0  0
  1 22  1  0  0  0
  1 23  1  0  0  0
  2  7  2  0  0  0
  2  3  1  0  0  0
  3  4  2  0  0  0
  3 24  1  0  0  0
  4  5  1  0  0  0
  4 25  1  0  0  0
  5  6  2  0  0  0
  6  7  1  0  0  0
  6 26  1  0  0  0
  7  8  1  0  0  0
  8  9  1  0  0  0
  8 27  1  0  0  0
  9 10  2  0  0  0
  9 11  1  0  0  0
 11 12  1  0  0  0
 11 13  1  0  0  0
 11 28  1  0  0  0
 12 29  1  0  0  0
 12 30  1  0  0  0
 12 31  1  0  0  0
 13 20  2  0  0  0
 13 14  1  0  0  0
 14 15  2  0  0  0
 14 32  1  0  0  0
 15 16  1  0  0  0
 15 33  1  0  0  0
 16 17  2  0  0  0
 16 34  1  0  0  0
 17 18  1  0  0  0
 17 20  1  0  0  0
 18 19  3  0  0  0
 20 35  1  0  0  0
M  END
> <r_i_docking_score>
-5.8769418942892

$$$$
ligprep_5.maegz:474
                    3D
 Schrodinger Suite 2020-4.
 30 31  0  0  1  0            999 V2000
   12.1631    5.1071   22.8022 N   0  0  0  0  0  0
   12.0842    3.9527   22.7656 C   0  0  0  0  0  0
   11.9978    2.4983   22.7255 C   0  0  0  0  0  0
   13.1698    1.7448   22.7083 C   0  0  0  0  0  0
   13.1194    0.3532   22.6846 C   0  0  0  0  0  0
   11.8881   -0.2949   22.6559 C   0  0  0  0  0  0
   10.6948    0.4480   22.6656 C   0  0  0  0  0  0
    9.4117   -0.1258   22.5925 N   0  0  0  0  0  0
    9.0478   -1.4075   22.8009 C   0  0  0  0  0  0
    9.7955   -2.2990   23.2033 O   0  0  0  0  0  0
    7.7413   -1.5728   22.5256 N   0  0  0  0  0  0
    6.9912   -2.7610   22.5526 C   0  0  0  0  0  0
    5.6056   -2.6391   22.6742 C   0  0  0  0  0  0
    4.7676   -3.7043   22.7090 N   0  0  0  0  0  0
    5.3065   -4.9445   22.5950 C   0  0  0  0  0  0
    6.6751   -5.1607   22.4452 C   0  0  0  0  0  0
    7.1736   -6.4527   22.3063 N   0  0  0  0  0  0
    7.5277   -4.0546   22.4314 C   0  0  0  0  0  0
   10.7598    1.8476   22.7046 C   0  0  0  0  0  0
   14.1364    2.2308   22.7075 H   0  0  0  0  0  0
   14.0326   -0.2230   22.6642 H   0  0  0  0  0  0
   11.8892   -1.3728   22.5962 H   0  0  0  0  0  0
    8.6716    0.5236   22.3816 H   0  0  0  0  0  0
    7.2079   -0.7402   22.3392 H   0  0  0  0  0  0
    5.1411   -1.6678   22.7577 H   0  0  0  0  0  0
    4.6141   -5.7732   22.6205 H   0  0  0  0  0  0
    6.5392   -7.2406   22.3074 H   0  0  0  0  0  0
    8.1635   -6.5771   22.1393 H   0  0  0  0  0  0
    8.5884   -4.2049   22.3088 H   0  0  0  0  0  0
    9.8490    2.4309   22.7082 H   0  0  0  0  0  0
  1  2  3  0  0  0
  2  3  1  0  0  0
  3 19  2  0  0  0
  3  4  1  0  0  0
  4  5  2  0  0  0
  4 20  1  0  0  0
  5  6  1  0  0  0
  5 21  1  0  0  0
  6  7  2  0  0  0
  6 22  1  0  0  0
  7  8  1  0  0  0
  7 19  1  0  0  0
  8  9  1  0  0  0
  8 23  1  0  0  0
  9 10  2  0  0  0
  9 11  1  0  0  0
 11 12  1  0  0  0
 11 24  1  0  0  0
 12 18  2  0  0  0
 12 13  1  0  0  0
 13 14  2  0  0  0
 13 25  1  0  0  0
 14 15  1  0  0  0
 15 16  2  0  0  0
 15 26  1  0  0  0
 16 17  1  0  0  0
 16 18  1  0  0  0
 17 27  1  0  0  0
 17 28  1  0  0  0
 18 29  1  0  0  0
 19 30  1  0  0  0
M  END
> <r_i_docking_score>
-5.08218237413328

$$$$
ligprep_5.maegz:475
                    3D
 Schrodinger Suite 2020-4.
 32 34  0  0  1  0            999 V2000
    5.5773   -3.2570   21.5054 N   0  0  0  0  0  0
    6.0789   -2.2158   21.4030 C   0  0  0  0  0  0
    6.6996   -0.9028   21.2728 C   0  0  0  0  0  0
    5.9703    0.1461   20.7058 C   0  0  0  0  0  0
    6.5240    1.4224   20.6304 C   0  0  0  0  0  0
    7.8137    1.6525   21.1074 C   0  0  0  0  0  0
    8.5693    0.6095   21.6473 C   0  0  0  0  0  0
    9.8546    0.9668   22.0904 N   0  0  0  0  0  0
   10.7933    0.2440   22.7414 C   0  0  0  0  0  0
   10.6917   -0.9478   23.0133 O   0  0  0  0  0  0
   11.9138    0.9117   23.1004 N   0  0  0  0  0  0
   12.1752    2.2634   22.9137 C   0  0  0  0  0  0
   13.2951    2.8027   22.3081 C   0  0  0  0  0  0
   13.2201    4.1744   22.3281 N   0  0  0  0  0  0
   12.0618    4.5602   22.9655 C   0  0  0  0  0  0
   11.6564    5.8155   23.1761 N   0  0  0  0  0  0
   10.4683    5.9277   23.8279 C   0  0  0  0  0  0
    9.7034    4.8478   24.2741 C   0  0  0  0  0  0
   10.1528    3.5441   24.0452 C   0  0  0  0  0  0
   11.3705    3.3761   23.3614 C   0  0  0  0  0  0
    8.0059   -0.6774   21.7285 C   0  0  0  0  0  0
    4.9630   -0.0098   20.3414 H   0  0  0  0  0  0
    5.9464    2.2374   20.2182 H   0  0  0  0  0  0
    8.2148    2.6554   21.0628 H   0  0  0  0  0  0
   10.1032    1.9310   21.9314 H   0  0  0  0  0  0
   12.6486    0.3617   23.5236 H   0  0  0  0  0  0
   14.1491    2.3168   21.8582 H   0  0  0  0  0  0
   13.9310    4.7745   21.9350 H   0  0  0  0  0  0
   10.1218    6.9381   23.9989 H   0  0  0  0  0  0
    8.7669    5.0221   24.7890 H   0  0  0  0  0  0
    9.5743    2.6944   24.3772 H   0  0  0  0  0  0
    8.5608   -1.5018   22.1497 H   0  0  0  0  0  0
  1  2  3  0  0  0
  2  3  1  0  0  0
  3 21  2  0  0  0
  3  4  1  0  0  0
  4  5  2  0  0  0
  4 22  1  0  0  0
  5  6  1  0  0  0
  5 23  1  0  0  0
  6  7  2  0  0  0
  6 24  1  0  0  0
  7  8  1  0  0  0
  7 21  1  0  0  0
  8  9  1  0  0  0
  8 25  1  0  0  0
  9 10  2  0  0  0
  9 11  1  0  0  0
 11 12  1  0  0  0
 11 26  1  0  0  0
 12 20  1  0  0  0
 12 13  2  0  0  0
 13 14  1  0  0  0
 13 27  1  0  0  0
 14 15  1  0  0  0
 14 28  1  0  0  0
 15 20  2  0  0  0
 15 16  1  0  0  0
 16 17  2  0  0  0
 17 18  1  0  0  0
 17 29  1  0  0  0
 18 19  2  0  0  0
 18 30  1  0  0  0
 19 20  1  0  0  0
 19 31  1  0  0  0
 21 32  1  0  0  0
M  END
> <r_i_docking_score>
-4.8360067864309

$$$$
ligprep_5.maegz:476
                    3D
 Schrodinger Suite 2020-4.
 35 37  0  0  1  0            999 V2000
    5.8833   -3.5814   21.5089 N   0  0  0  0  0  0
    5.9864   -2.4871   21.1459 C   0  0  0  0  0  0
    6.1077   -1.1123   20.6847 C   0  0  0  0  0  0
    5.9690   -0.8129   19.3262 C   0  0  0  0  0  0
    5.9200    0.5154   18.9045 C   0  0  0  0  0  0
    6.0605    1.5471   19.8324 C   0  0  0  0  0  0
    6.3311    1.2560   21.1709 C   0  0  0  0  0  0
    6.5532    2.3240   22.0525 N   0  0  0  0  0  0
    7.5373    2.4468   22.9706 C   0  0  0  0  0  0
    7.5108    3.3885   23.7581 O   0  0  0  0  0  0
    8.6827    1.4069   23.0628 C   0  0  0  0  0  0
   10.1438    1.8949   23.0119 C   0  0  0  0  0  0
   10.5248    3.2428   23.1154 C   0  0  0  0  0  0
   11.8010    3.6826   23.0254 N   0  0  0  0  0  0
   12.7625    2.7609   22.8113 C   0  0  0  0  0  0
   12.5317    1.3736   22.7056 C   0  0  0  0  0  0
   13.5692    0.4512   22.4366 C   0  0  0  0  0  0
   13.2843   -0.9040   22.3077 C   0  0  0  0  0  0
   11.9847   -1.3705   22.4526 C   0  0  0  0  0  0
   10.9432   -0.4857   22.7140 C   0  0  0  0  0  0
   11.1820    0.9174   22.8251 C   0  0  0  0  0  0
    6.3165   -0.0790   21.6023 C   0  0  0  0  0  0
    5.8287   -1.5971   18.5954 H   0  0  0  0  0  0
    5.7493    0.7451   17.8623 H   0  0  0  0  0  0
    5.9696    2.5708   19.4996 H   0  0  0  0  0  0
    5.9682    3.1362   21.9199 H   0  0  0  0  0  0
    8.5347    0.8247   23.9730 H   0  0  0  0  0  0
    8.6022    0.7199   22.2271 H   0  0  0  0  0  0
    9.8003    4.0312   23.2486 H   0  0  0  0  0  0
   13.7677    3.1427   22.7071 H   0  0  0  0  0  0
   14.5773    0.8127   22.3015 H   0  0  0  0  0  0
   14.0784   -1.6029   22.0903 H   0  0  0  0  0  0
   11.7799   -2.4274   22.3505 H   0  0  0  0  0  0
    9.9461   -0.8851   22.8145 H   0  0  0  0  0  0
    6.4333   -0.3019   22.6541 H   0  0  0  0  0  0
  1  2  3  0  0  0
  2  3  1  0  0  0
  3 22  2  0  0  0
  3  4  1  0  0  0
  4  5  2  0  0  0
  4 23  1  0  0  0
  5  6  1  0  0  0
  5 24  1  0  0  0
  6  7  2  0  0  0
  6 25  1  0  0  0
  7  8  1  0  0  0
  7 22  1  0  0  0
  8  9  1  0  0  0
  8 26  1  0  0  0
  9 10  2  0  0  0
  9 11  1  0  0  0
 11 12  1  0  0  0
 11 27  1  0  0  0
 11 28  1  0  0  0
 12 21  2  0  0  0
 12 13  1  0  0  0
 13 14  2  0  0  0
 13 29  1  0  0  0
 14 15  1  0  0  0
 15 16  2  0  0  0
 15 30  1  0  0  0
 16 21  1  0  0  0
 16 17  1  0  0  0
 17 18  2  0  0  0
 17 31  1  0  0  0
 18 19  1  0  0  0
 18 32  1  0  0  0
 19 20  2  0  0  0
 19 33  1  0  0  0
 20 21  1  0  0  0
 20 34  1  0  0  0
 22 35  1  0  0  0
M  END
> <r_i_docking_score>
-4.64742687782098

$$$$
ligprep_5.maegz:477
                    3D
 Schrodinger Suite 2020-4.
 34 36  0  0  1  0            999 V2000
    9.1733   -1.0225   21.5314 O   0  0  0  0  0  0
    8.9046   -0.0226   22.1957 C   0  0  0  0  0  0
    9.7395    0.2662   23.4504 C   0  0  0  0  0  0
   11.1371    0.7785   23.0923 C   0  0  0  0  0  0
   12.1262   -0.1381   22.7062 C   0  0  0  0  0  0
   13.3730    0.2070   22.3185 N   0  0  0  0  0  0
   13.6696    1.5231   22.3098 C   0  0  0  0  0  0
   12.7852    2.5568   22.6854 C   0  0  0  0  0  0
   13.1666    3.9222   22.6710 C   0  0  0  0  0  0
   12.2538    4.9017   23.0466 C   0  0  0  0  0  0
   10.9625    4.5518   23.4237 C   0  0  0  0  0  0
   10.5592    3.2182   23.4400 C   0  0  0  0  0  0
   11.4646    2.1782   23.0840 C   0  0  0  0  0  0
    7.9238    0.8583   21.9087 N   0  0  0  0  0  0
    7.0254    0.8807   20.8235 C   0  0  0  0  0  0
    7.0418   -0.0198   19.7454 C   0  0  0  0  0  0
    6.1235    0.1149   18.7080 C   0  0  0  0  0  0
    5.1896    1.1453   18.7415 C   0  0  0  0  0  0
    5.1580    2.0381   19.8066 C   0  0  0  0  0  0
    6.0747    1.9043   20.8442 C   0  0  0  0  0  0
    9.2209    0.9269   24.1433 H   0  0  0  0  0  0
    9.8402   -0.6741   23.9949 H   0  0  0  0  0  0
   11.9055   -1.1973   22.6686 H   0  0  0  0  0  0
   14.6718    1.7728   21.9891 H   0  0  0  0  0  0
   14.1672    4.1971   22.3690 H   0  0  0  0  0  0
   12.5456    5.9427   23.0347 H   0  0  0  0  0  0
   10.2594    5.3284   23.6930 H   0  0  0  0  0  0
    9.5441    2.9903   23.7176 H   0  0  0  0  0  0
    7.7967    1.6174   22.5582 H   0  0  0  0  0  0
    7.7557   -0.8237   19.6727 H   0  0  0  0  0  0
    6.1452   -0.5721   17.8741 H   0  0  0  0  0  0
    4.4858    1.2546   17.9305 H   0  0  0  0  0  0
    4.4423    2.8496   19.8161 H   0  0  0  0  0  0
    6.0453    2.6178   21.6551 H   0  0  0  0  0  0
  1  2  2  0  0  0
  2  3  1  0  0  0
  2 14  1  0  0  0
  3  4  1  0  0  0
  3 21  1  0  0  0
  3 22  1  0  0  0
  4 13  2  0  0  0
  4  5  1  0  0  0
  5  6  2  0  0  0
  5 23  1  0  0  0
  6  7  1  0  0  0
  7  8  2  0  0  0
  7 24  1  0  0  0
  8 13  1  0  0  0
  8  9  1  0  0  0
  9 10  2  0  0  0
  9 25  1  0  0  0
 10 11  1  0  0  0
 10 26  1  0  0  0
 11 12  2  0  0  0
 11 27  1  0  0  0
 12 13  1  0  0  0
 12 28  1  0  0  0
 14 15  1  0  0  0
 14 29  1  0  0  0
 15 20  2  0  0  0
 15 16  1  0  0  0
 16 17  2  0  0  0
 16 30  1  0  0  0
 17 18  1  0  0  0
 17 31  1  0  0  0
 18 19  2  0  0  0
 18 32  1  0  0  0
 19 20  1  0  0  0
 19 33  1  0  0  0
 20 34  1  0  0  0
M  END
> <r_i_docking_score>
-6.53085689085907

$$$$
